<routes>
        <vType id="typeWE" accel="0.8" decel="4.5" sigma="0.5" length="5" minGap="2.5" maxSpeed="16.67" guiShape="passenger"/>
        <vType id="typeNS" accel="0.8" decel="4.5" sigma="0.5" length="7" minGap="3" maxSpeed="25" guiShape="bus"/>

        <route id="right" edges="51o 1i 2o 52i" />
        <route id="left" edges="52o 2i 1o 51i" />
        <route id="down" edges="54o 4i 3o 53i" />
    <vehicle id="right_0" type="typeWE" route="right" depart="3" />
    <vehicle id="right_1" type="typeWE" route="right" depart="4" />
    <vehicle id="down_2" type="typeNS" route="down" depart="6" color="1,0,0"/>
    <vehicle id="right_3" type="typeWE" route="right" depart="9" />
    <vehicle id="left_4" type="typeWE" route="left" depart="13" />
    <vehicle id="left_5" type="typeWE" route="left" depart="14" />
    <vehicle id="left_6" type="typeWE" route="left" depart="29" />
    <vehicle id="down_7" type="typeNS" route="down" depart="33" color="1,0,0"/>
    <vehicle id="down_8" type="typeNS" route="down" depart="41" color="1,0,0"/>
    <vehicle id="right_9" type="typeWE" route="right" depart="42" />
    <vehicle id="left_10" type="typeWE" route="left" depart="43" />
    <vehicle id="right_11" type="typeWE" route="right" depart="55" />
    <vehicle id="right_12" type="typeWE" route="right" depart="61" />
    <vehicle id="left_13" type="typeWE" route="left" depart="65" />
    <vehicle id="right_14" type="typeWE" route="right" depart="69" />
    <vehicle id="left_15" type="typeWE" route="left" depart="74" />
    <vehicle id="left_16" type="typeWE" route="left" depart="76" />
    <vehicle id="right_17" type="typeWE" route="right" depart="84" />
    <vehicle id="left_18" type="typeWE" route="left" depart="89" />
    <vehicle id="left_19" type="typeWE" route="left" depart="96" />
    <vehicle id="right_20" type="typeWE" route="right" depart="99" />
    <vehicle id="right_21" type="typeWE" route="right" depart="108" />
    <vehicle id="right_22" type="typeWE" route="right" depart="114" />
    <vehicle id="left_23" type="typeWE" route="left" depart="122" />
    <vehicle id="right_24" type="typeWE" route="right" depart="125" />
    <vehicle id="down_25" type="typeNS" route="down" depart="131" color="1,0,0"/>
    <vehicle id="left_26" type="typeWE" route="left" depart="139" />
    <vehicle id="down_27" type="typeNS" route="down" depart="142" color="1,0,0"/>
    <vehicle id="right_28" type="typeWE" route="right" depart="145" />
    <vehicle id="down_29" type="typeNS" route="down" depart="160" color="1,0,0"/>
    <vehicle id="right_30" type="typeWE" route="right" depart="167" />
    <vehicle id="right_31" type="typeWE" route="right" depart="168" />
    <vehicle id="left_32" type="typeWE" route="left" depart="172" />
    <vehicle id="right_33" type="typeWE" route="right" depart="176" />
    <vehicle id="right_34" type="typeWE" route="right" depart="181" />
    <vehicle id="right_35" type="typeWE" route="right" depart="183" />
    <vehicle id="down_36" type="typeNS" route="down" depart="199" color="1,0,0"/>
    <vehicle id="right_37" type="typeWE" route="right" depart="200" />
    <vehicle id="down_38" type="typeNS" route="down" depart="212" color="1,0,0"/>
    <vehicle id="right_39" type="typeWE" route="right" depart="217" />
    <vehicle id="left_40" type="typeWE" route="left" depart="218" />
    <vehicle id="left_41" type="typeWE" route="left" depart="227" />
    <vehicle id="right_42" type="typeWE" route="right" depart="228" />
    <vehicle id="left_43" type="typeWE" route="left" depart="238" />
    <vehicle id="right_44" type="typeWE" route="right" depart="240" />
    <vehicle id="left_45" type="typeWE" route="left" depart="242" />
    <vehicle id="left_46" type="typeWE" route="left" depart="283" />
    <vehicle id="right_47" type="typeWE" route="right" depart="284" />
    <vehicle id="right_48" type="typeWE" route="right" depart="286" />
    <vehicle id="right_49" type="typeWE" route="right" depart="288" />
    <vehicle id="right_50" type="typeWE" route="right" depart="291" />
    <vehicle id="right_51" type="typeWE" route="right" depart="294" />
    <vehicle id="left_52" type="typeWE" route="left" depart="302" />
    <vehicle id="left_53" type="typeWE" route="left" depart="318" />
    <vehicle id="right_54" type="typeWE" route="right" depart="322" />
    <vehicle id="left_55" type="typeWE" route="left" depart="323" />
    <vehicle id="left_56" type="typeWE" route="left" depart="331" />
    <vehicle id="left_57" type="typeWE" route="left" depart="337" />
    <vehicle id="right_58" type="typeWE" route="right" depart="342" />
    <vehicle id="left_59" type="typeWE" route="left" depart="344" />
    <vehicle id="left_60" type="typeWE" route="left" depart="349" />
    <vehicle id="left_61" type="typeWE" route="left" depart="351" />
    <vehicle id="left_62" type="typeWE" route="left" depart="353" />
    <vehicle id="right_63" type="typeWE" route="right" depart="354" />
    <vehicle id="left_64" type="typeWE" route="left" depart="354" />
    <vehicle id="left_65" type="typeWE" route="left" depart="363" />
    <vehicle id="right_66" type="typeWE" route="right" depart="375" />
    <vehicle id="left_67" type="typeWE" route="left" depart="377" />
    <vehicle id="left_68" type="typeWE" route="left" depart="379" />
    <vehicle id="right_69" type="typeWE" route="right" depart="383" />
    <vehicle id="down_70" type="typeNS" route="down" depart="389" color="1,0,0"/>
    <vehicle id="down_71" type="typeNS" route="down" depart="391" color="1,0,0"/>
    <vehicle id="right_72" type="typeWE" route="right" depart="394" />
    <vehicle id="left_73" type="typeWE" route="left" depart="394" />
    <vehicle id="right_74" type="typeWE" route="right" depart="395" />
    <vehicle id="left_75" type="typeWE" route="left" depart="397" />
    <vehicle id="right_76" type="typeWE" route="right" depart="412" />
    <vehicle id="left_77" type="typeWE" route="left" depart="414" />
    <vehicle id="left_78" type="typeWE" route="left" depart="426" />
    <vehicle id="right_79" type="typeWE" route="right" depart="427" />
    <vehicle id="left_80" type="typeWE" route="left" depart="438" />
    <vehicle id="left_81" type="typeWE" route="left" depart="440" />
    <vehicle id="left_82" type="typeWE" route="left" depart="457" />
    <vehicle id="right_83" type="typeWE" route="right" depart="458" />
    <vehicle id="left_84" type="typeWE" route="left" depart="459" />
    <vehicle id="left_85" type="typeWE" route="left" depart="463" />
    <vehicle id="right_86" type="typeWE" route="right" depart="464" />
    <vehicle id="right_87" type="typeWE" route="right" depart="467" />
    <vehicle id="down_88" type="typeNS" route="down" depart="469" color="1,0,0"/>
    <vehicle id="right_89" type="typeWE" route="right" depart="473" />
    <vehicle id="down_90" type="typeNS" route="down" depart="476" color="1,0,0"/>
    <vehicle id="right_91" type="typeWE" route="right" depart="479" />
    <vehicle id="right_92" type="typeWE" route="right" depart="482" />
    <vehicle id="right_93" type="typeWE" route="right" depart="484" />
    <vehicle id="right_94" type="typeWE" route="right" depart="494" />
    <vehicle id="left_95" type="typeWE" route="left" depart="498" />
    <vehicle id="left_96" type="typeWE" route="left" depart="501" />
    <vehicle id="right_97" type="typeWE" route="right" depart="502" />
    <vehicle id="left_98" type="typeWE" route="left" depart="518" />
    <vehicle id="right_99" type="typeWE" route="right" depart="523" />
    <vehicle id="right_100" type="typeWE" route="right" depart="536" />
    <vehicle id="left_101" type="typeWE" route="left" depart="541" />
    <vehicle id="left_102" type="typeWE" route="left" depart="559" />
    <vehicle id="right_103" type="typeWE" route="right" depart="565" />
    <vehicle id="left_104" type="typeWE" route="left" depart="573" />
    <vehicle id="down_105" type="typeNS" route="down" depart="579" color="1,0,0"/>
    <vehicle id="left_106" type="typeWE" route="left" depart="600" />
    <vehicle id="down_107" type="typeNS" route="down" depart="602" color="1,0,0"/>
    <vehicle id="right_108" type="typeWE" route="right" depart="612" />
    <vehicle id="left_109" type="typeWE" route="left" depart="624" />
    <vehicle id="left_110" type="typeWE" route="left" depart="625" />
    <vehicle id="right_111" type="typeWE" route="right" depart="636" />
    <vehicle id="right_112" type="typeWE" route="right" depart="644" />
    <vehicle id="left_113" type="typeWE" route="left" depart="644" />
    <vehicle id="left_114" type="typeWE" route="left" depart="645" />
    <vehicle id="left_115" type="typeWE" route="left" depart="653" />
    <vehicle id="right_116" type="typeWE" route="right" depart="654" />
    <vehicle id="down_117" type="typeNS" route="down" depart="659" color="1,0,0"/>
    <vehicle id="right_118" type="typeWE" route="right" depart="668" />
    <vehicle id="down_119" type="typeNS" route="down" depart="683" color="1,0,0"/>
    <vehicle id="left_120" type="typeWE" route="left" depart="700" />
    <vehicle id="right_121" type="typeWE" route="right" depart="701" />
    <vehicle id="right_122" type="typeWE" route="right" depart="704" />
    <vehicle id="left_123" type="typeWE" route="left" depart="706" />
    <vehicle id="down_124" type="typeNS" route="down" depart="707" color="1,0,0"/>
    <vehicle id="left_125" type="typeWE" route="left" depart="708" />
    <vehicle id="left_126" type="typeWE" route="left" depart="717" />
    <vehicle id="right_127" type="typeWE" route="right" depart="720" />
    <vehicle id="left_128" type="typeWE" route="left" depart="720" />
    <vehicle id="left_129" type="typeWE" route="left" depart="722" />
    <vehicle id="right_130" type="typeWE" route="right" depart="724" />
    <vehicle id="left_131" type="typeWE" route="left" depart="726" />
    <vehicle id="right_132" type="typeWE" route="right" depart="731" />
    <vehicle id="left_133" type="typeWE" route="left" depart="733" />
    <vehicle id="right_134" type="typeWE" route="right" depart="738" />
    <vehicle id="down_135" type="typeNS" route="down" depart="740" color="1,0,0"/>
    <vehicle id="right_136" type="typeWE" route="right" depart="744" />
    <vehicle id="right_137" type="typeWE" route="right" depart="746" />
    <vehicle id="left_138" type="typeWE" route="left" depart="750" />
    <vehicle id="left_139" type="typeWE" route="left" depart="776" />
    <vehicle id="left_140" type="typeWE" route="left" depart="780" />
    <vehicle id="left_141" type="typeWE" route="left" depart="791" />
    <vehicle id="left_142" type="typeWE" route="left" depart="794" />
    <vehicle id="right_143" type="typeWE" route="right" depart="808" />
    <vehicle id="left_144" type="typeWE" route="left" depart="808" />
    <vehicle id="right_145" type="typeWE" route="right" depart="812" />
    <vehicle id="left_146" type="typeWE" route="left" depart="817" />
    <vehicle id="right_147" type="typeWE" route="right" depart="826" />
    <vehicle id="left_148" type="typeWE" route="left" depart="838" />
    <vehicle id="right_149" type="typeWE" route="right" depart="841" />
    <vehicle id="left_150" type="typeWE" route="left" depart="847" />
    <vehicle id="down_151" type="typeNS" route="down" depart="854" color="1,0,0"/>
    <vehicle id="right_152" type="typeWE" route="right" depart="856" />
    <vehicle id="right_153" type="typeWE" route="right" depart="858" />
    <vehicle id="down_154" type="typeNS" route="down" depart="862" color="1,0,0"/>
    <vehicle id="left_155" type="typeWE" route="left" depart="872" />
    <vehicle id="right_156" type="typeWE" route="right" depart="879" />
    <vehicle id="right_157" type="typeWE" route="right" depart="880" />
    <vehicle id="left_158" type="typeWE" route="left" depart="882" />
    <vehicle id="right_159" type="typeWE" route="right" depart="887" />
    <vehicle id="left_160" type="typeWE" route="left" depart="895" />
    <vehicle id="left_161" type="typeWE" route="left" depart="896" />
    <vehicle id="left_162" type="typeWE" route="left" depart="897" />
    <vehicle id="left_163" type="typeWE" route="left" depart="901" />
    <vehicle id="right_164" type="typeWE" route="right" depart="907" />
    <vehicle id="left_165" type="typeWE" route="left" depart="909" />
    <vehicle id="left_166" type="typeWE" route="left" depart="911" />
    <vehicle id="right_167" type="typeWE" route="right" depart="916" />
    <vehicle id="down_168" type="typeNS" route="down" depart="918" color="1,0,0"/>
    <vehicle id="right_169" type="typeWE" route="right" depart="921" />
    <vehicle id="right_170" type="typeWE" route="right" depart="922" />
    <vehicle id="left_171" type="typeWE" route="left" depart="925" />
    <vehicle id="left_172" type="typeWE" route="left" depart="929" />
    <vehicle id="left_173" type="typeWE" route="left" depart="935" />
    <vehicle id="right_174" type="typeWE" route="right" depart="939" />
    <vehicle id="left_175" type="typeWE" route="left" depart="941" />
    <vehicle id="left_176" type="typeWE" route="left" depart="945" />
    <vehicle id="right_177" type="typeWE" route="right" depart="948" />
    <vehicle id="right_178" type="typeWE" route="right" depart="950" />
    <vehicle id="left_179" type="typeWE" route="left" depart="961" />
    <vehicle id="left_180" type="typeWE" route="left" depart="969" />
    <vehicle id="left_181" type="typeWE" route="left" depart="974" />
    <vehicle id="right_182" type="typeWE" route="right" depart="989" />
    <vehicle id="left_183" type="typeWE" route="left" depart="995" />
    <vehicle id="left_184" type="typeWE" route="left" depart="996" />
    <vehicle id="right_185" type="typeWE" route="right" depart="1003" />
    <vehicle id="right_186" type="typeWE" route="right" depart="1005" />
    <vehicle id="right_187" type="typeWE" route="right" depart="1011" />
    <vehicle id="left_188" type="typeWE" route="left" depart="1020" />
    <vehicle id="right_189" type="typeWE" route="right" depart="1043" />
    <vehicle id="left_190" type="typeWE" route="left" depart="1044" />
    <vehicle id="right_191" type="typeWE" route="right" depart="1047" />
    <vehicle id="right_192" type="typeWE" route="right" depart="1049" />
    <vehicle id="left_193" type="typeWE" route="left" depart="1056" />
    <vehicle id="right_194" type="typeWE" route="right" depart="1061" />
    <vehicle id="right_195" type="typeWE" route="right" depart="1068" />
    <vehicle id="right_196" type="typeWE" route="right" depart="1069" />
    <vehicle id="down_197" type="typeNS" route="down" depart="1070" color="1,0,0"/>
    <vehicle id="right_198" type="typeWE" route="right" depart="1078" />
    <vehicle id="right_199" type="typeWE" route="right" depart="1093" />
    <vehicle id="down_200" type="typeNS" route="down" depart="1104" color="1,0,0"/>
    <vehicle id="left_201" type="typeWE" route="left" depart="1108" />
    <vehicle id="left_202" type="typeWE" route="left" depart="1109" />
    <vehicle id="left_203" type="typeWE" route="left" depart="1121" />
    <vehicle id="right_204" type="typeWE" route="right" depart="1123" />
    <vehicle id="down_205" type="typeNS" route="down" depart="1124" color="1,0,0"/>
    <vehicle id="left_206" type="typeWE" route="left" depart="1133" />
    <vehicle id="down_207" type="typeNS" route="down" depart="1135" color="1,0,0"/>
    <vehicle id="right_208" type="typeWE" route="right" depart="1141" />
    <vehicle id="right_209" type="typeWE" route="right" depart="1146" />
    <vehicle id="left_210" type="typeWE" route="left" depart="1153" />
    <vehicle id="left_211" type="typeWE" route="left" depart="1163" />
    <vehicle id="left_212" type="typeWE" route="left" depart="1165" />
    <vehicle id="right_213" type="typeWE" route="right" depart="1167" />
    <vehicle id="down_214" type="typeNS" route="down" depart="1172" color="1,0,0"/>
    <vehicle id="left_215" type="typeWE" route="left" depart="1175" />
    <vehicle id="left_216" type="typeWE" route="left" depart="1189" />
    <vehicle id="right_217" type="typeWE" route="right" depart="1208" />
    <vehicle id="right_218" type="typeWE" route="right" depart="1212" />
    <vehicle id="down_219" type="typeNS" route="down" depart="1218" color="1,0,0"/>
    <vehicle id="left_220" type="typeWE" route="left" depart="1228" />
    <vehicle id="down_221" type="typeNS" route="down" depart="1237" color="1,0,0"/>
    <vehicle id="left_222" type="typeWE" route="left" depart="1243" />
    <vehicle id="down_223" type="typeNS" route="down" depart="1246" color="1,0,0"/>
    <vehicle id="left_224" type="typeWE" route="left" depart="1246" />
    <vehicle id="right_225" type="typeWE" route="right" depart="1252" />
    <vehicle id="down_226" type="typeNS" route="down" depart="1255" color="1,0,0"/>
    <vehicle id="right_227" type="typeWE" route="right" depart="1258" />
    <vehicle id="right_228" type="typeWE" route="right" depart="1267" />
    <vehicle id="right_229" type="typeWE" route="right" depart="1275" />
    <vehicle id="down_230" type="typeNS" route="down" depart="1281" color="1,0,0"/>
    <vehicle id="left_231" type="typeWE" route="left" depart="1288" />
    <vehicle id="right_232" type="typeWE" route="right" depart="1289" />
    <vehicle id="left_233" type="typeWE" route="left" depart="1289" />
    <vehicle id="right_234" type="typeWE" route="right" depart="1302" />
    <vehicle id="right_235" type="typeWE" route="right" depart="1304" />
    <vehicle id="left_236" type="typeWE" route="left" depart="1312" />
    <vehicle id="left_237" type="typeWE" route="left" depart="1317" />
    <vehicle id="right_238" type="typeWE" route="right" depart="1318" />
    <vehicle id="right_239" type="typeWE" route="right" depart="1320" />
    <vehicle id="right_240" type="typeWE" route="right" depart="1322" />
    <vehicle id="left_241" type="typeWE" route="left" depart="1336" />
    <vehicle id="right_242" type="typeWE" route="right" depart="1340" />
    <vehicle id="down_243" type="typeNS" route="down" depart="1344" color="1,0,0"/>
    <vehicle id="right_244" type="typeWE" route="right" depart="1357" />
    <vehicle id="left_245" type="typeWE" route="left" depart="1358" />
    <vehicle id="left_246" type="typeWE" route="left" depart="1359" />
    <vehicle id="left_247" type="typeWE" route="left" depart="1364" />
    <vehicle id="right_248" type="typeWE" route="right" depart="1367" />
    <vehicle id="right_249" type="typeWE" route="right" depart="1370" />
    <vehicle id="right_250" type="typeWE" route="right" depart="1375" />
    <vehicle id="left_251" type="typeWE" route="left" depart="1380" />
    <vehicle id="right_252" type="typeWE" route="right" depart="1384" />
    <vehicle id="right_253" type="typeWE" route="right" depart="1385" />
    <vehicle id="right_254" type="typeWE" route="right" depart="1386" />
    <vehicle id="left_255" type="typeWE" route="left" depart="1398" />
    <vehicle id="left_256" type="typeWE" route="left" depart="1402" />
    <vehicle id="left_257" type="typeWE" route="left" depart="1416" />
    <vehicle id="right_258" type="typeWE" route="right" depart="1420" />
    <vehicle id="right_259" type="typeWE" route="right" depart="1428" />
    <vehicle id="right_260" type="typeWE" route="right" depart="1433" />
    <vehicle id="left_261" type="typeWE" route="left" depart="1434" />
    <vehicle id="left_262" type="typeWE" route="left" depart="1435" />
    <vehicle id="left_263" type="typeWE" route="left" depart="1436" />
    <vehicle id="left_264" type="typeWE" route="left" depart="1437" />
    <vehicle id="right_265" type="typeWE" route="right" depart="1450" />
    <vehicle id="left_266" type="typeWE" route="left" depart="1451" />
    <vehicle id="right_267" type="typeWE" route="right" depart="1453" />
    <vehicle id="down_268" type="typeNS" route="down" depart="1454" color="1,0,0"/>
    <vehicle id="left_269" type="typeWE" route="left" depart="1463" />
    <vehicle id="right_270" type="typeWE" route="right" depart="1464" />
    <vehicle id="right_271" type="typeWE" route="right" depart="1471" />
    <vehicle id="right_272" type="typeWE" route="right" depart="1475" />
    <vehicle id="left_273" type="typeWE" route="left" depart="1483" />
    <vehicle id="right_274" type="typeWE" route="right" depart="1484" />
    <vehicle id="right_275" type="typeWE" route="right" depart="1488" />
    <vehicle id="right_276" type="typeWE" route="right" depart="1499" />
    <vehicle id="down_277" type="typeNS" route="down" depart="1500" color="1,0,0"/>
    <vehicle id="left_278" type="typeWE" route="left" depart="1505" />
    <vehicle id="left_279" type="typeWE" route="left" depart="1510" />
    <vehicle id="right_280" type="typeWE" route="right" depart="1513" />
    <vehicle id="left_281" type="typeWE" route="left" depart="1515" />
    <vehicle id="right_282" type="typeWE" route="right" depart="1516" />
    <vehicle id="left_283" type="typeWE" route="left" depart="1533" />
    <vehicle id="left_284" type="typeWE" route="left" depart="1543" />
    <vehicle id="right_285" type="typeWE" route="right" depart="1544" />
    <vehicle id="down_286" type="typeNS" route="down" depart="1547" color="1,0,0"/>
    <vehicle id="left_287" type="typeWE" route="left" depart="1548" />
    <vehicle id="left_288" type="typeWE" route="left" depart="1553" />
    <vehicle id="right_289" type="typeWE" route="right" depart="1555" />
    <vehicle id="right_290" type="typeWE" route="right" depart="1559" />
    <vehicle id="left_291" type="typeWE" route="left" depart="1564" />
    <vehicle id="right_292" type="typeWE" route="right" depart="1567" />
    <vehicle id="left_293" type="typeWE" route="left" depart="1568" />
    <vehicle id="right_294" type="typeWE" route="right" depart="1570" />
    <vehicle id="down_295" type="typeNS" route="down" depart="1573" color="1,0,0"/>
    <vehicle id="right_296" type="typeWE" route="right" depart="1576" />
    <vehicle id="left_297" type="typeWE" route="left" depart="1576" />
    <vehicle id="left_298" type="typeWE" route="left" depart="1578" />
    <vehicle id="right_299" type="typeWE" route="right" depart="1589" />
    <vehicle id="right_300" type="typeWE" route="right" depart="1591" />
    <vehicle id="right_301" type="typeWE" route="right" depart="1612" />
    <vehicle id="left_302" type="typeWE" route="left" depart="1612" />
    <vehicle id="left_303" type="typeWE" route="left" depart="1614" />
    <vehicle id="left_304" type="typeWE" route="left" depart="1617" />
    <vehicle id="right_305" type="typeWE" route="right" depart="1622" />
    <vehicle id="left_306" type="typeWE" route="left" depart="1624" />
    <vehicle id="left_307" type="typeWE" route="left" depart="1645" />
    <vehicle id="left_308" type="typeWE" route="left" depart="1647" />
    <vehicle id="right_309" type="typeWE" route="right" depart="1650" />
    <vehicle id="right_310" type="typeWE" route="right" depart="1651" />
    <vehicle id="right_311" type="typeWE" route="right" depart="1653" />
    <vehicle id="right_312" type="typeWE" route="right" depart="1657" />
    <vehicle id="left_313" type="typeWE" route="left" depart="1669" />
    <vehicle id="right_314" type="typeWE" route="right" depart="1670" />
    <vehicle id="down_315" type="typeNS" route="down" depart="1673" color="1,0,0"/>
    <vehicle id="left_316" type="typeWE" route="left" depart="1675" />
    <vehicle id="left_317" type="typeWE" route="left" depart="1686" />
    <vehicle id="left_318" type="typeWE" route="left" depart="1694" />
    <vehicle id="left_319" type="typeWE" route="left" depart="1700" />
    <vehicle id="right_320" type="typeWE" route="right" depart="1702" />
    <vehicle id="left_321" type="typeWE" route="left" depart="1702" />
    <vehicle id="left_322" type="typeWE" route="left" depart="1707" />
    <vehicle id="right_323" type="typeWE" route="right" depart="1711" />
    <vehicle id="left_324" type="typeWE" route="left" depart="1713" />
    <vehicle id="left_325" type="typeWE" route="left" depart="1738" />
    <vehicle id="right_326" type="typeWE" route="right" depart="1741" />
    <vehicle id="left_327" type="typeWE" route="left" depart="1742" />
    <vehicle id="right_328" type="typeWE" route="right" depart="1748" />
    <vehicle id="down_329" type="typeNS" route="down" depart="1748" color="1,0,0"/>
    <vehicle id="left_330" type="typeWE" route="left" depart="1750" />
    <vehicle id="left_331" type="typeWE" route="left" depart="1758" />
    <vehicle id="right_332" type="typeWE" route="right" depart="1772" />
    <vehicle id="left_333" type="typeWE" route="left" depart="1774" />
    <vehicle id="right_334" type="typeWE" route="right" depart="1780" />
    <vehicle id="right_335" type="typeWE" route="right" depart="1781" />
    <vehicle id="left_336" type="typeWE" route="left" depart="1782" />
    <vehicle id="right_337" type="typeWE" route="right" depart="1785" />
    <vehicle id="down_338" type="typeNS" route="down" depart="1798" color="1,0,0"/>
    <vehicle id="right_339" type="typeWE" route="right" depart="1808" />
    <vehicle id="left_340" type="typeWE" route="left" depart="1819" />
    <vehicle id="right_341" type="typeWE" route="right" depart="1821" />
    <vehicle id="down_342" type="typeNS" route="down" depart="1833" color="1,0,0"/>
    <vehicle id="right_343" type="typeWE" route="right" depart="1837" />
    <vehicle id="right_344" type="typeWE" route="right" depart="1838" />
    <vehicle id="left_345" type="typeWE" route="left" depart="1839" />
    <vehicle id="right_346" type="typeWE" route="right" depart="1842" />
    <vehicle id="left_347" type="typeWE" route="left" depart="1844" />
    <vehicle id="right_348" type="typeWE" route="right" depart="1847" />
    <vehicle id="right_349" type="typeWE" route="right" depart="1848" />
    <vehicle id="right_350" type="typeWE" route="right" depart="1853" />
    <vehicle id="right_351" type="typeWE" route="right" depart="1865" />
    <vehicle id="left_352" type="typeWE" route="left" depart="1866" />
    <vehicle id="down_353" type="typeNS" route="down" depart="1867" color="1,0,0"/>
    <vehicle id="right_354" type="typeWE" route="right" depart="1868" />
    <vehicle id="left_355" type="typeWE" route="left" depart="1874" />
    <vehicle id="right_356" type="typeWE" route="right" depart="1876" />
    <vehicle id="right_357" type="typeWE" route="right" depart="1881" />
    <vehicle id="right_358" type="typeWE" route="right" depart="1895" />
    <vehicle id="right_359" type="typeWE" route="right" depart="1905" />
    <vehicle id="left_360" type="typeWE" route="left" depart="1905" />
    <vehicle id="left_361" type="typeWE" route="left" depart="1906" />
    <vehicle id="down_362" type="typeNS" route="down" depart="1909" color="1,0,0"/>
    <vehicle id="left_363" type="typeWE" route="left" depart="1916" />
    <vehicle id="left_364" type="typeWE" route="left" depart="1917" />
    <vehicle id="right_365" type="typeWE" route="right" depart="1920" />
    <vehicle id="right_366" type="typeWE" route="right" depart="1921" />
    <vehicle id="right_367" type="typeWE" route="right" depart="1930" />
    <vehicle id="left_368" type="typeWE" route="left" depart="1934" />
    <vehicle id="left_369" type="typeWE" route="left" depart="1935" />
    <vehicle id="right_370" type="typeWE" route="right" depart="1942" />
    <vehicle id="right_371" type="typeWE" route="right" depart="1949" />
    <vehicle id="left_372" type="typeWE" route="left" depart="1959" />
    <vehicle id="left_373" type="typeWE" route="left" depart="1967" />
    <vehicle id="left_374" type="typeWE" route="left" depart="1969" />
    <vehicle id="right_375" type="typeWE" route="right" depart="1971" />
    <vehicle id="right_376" type="typeWE" route="right" depart="1982" />
    <vehicle id="right_377" type="typeWE" route="right" depart="1983" />
    <vehicle id="left_378" type="typeWE" route="left" depart="1986" />
    <vehicle id="left_379" type="typeWE" route="left" depart="1988" />
    <vehicle id="right_380" type="typeWE" route="right" depart="1989" />
    <vehicle id="left_381" type="typeWE" route="left" depart="1993" />
    <vehicle id="right_382" type="typeWE" route="right" depart="1998" />
</routes>
