<?xml version="1.0" encoding="UTF-8"?>

<!-- generated on 02/28/21 18:01:05 by Eclipse SUMO duarouter Version 1.8.0
<configuration xmlns:xsi="http://www.w3.org/2001/XMLSchema-instance" xsi:noNamespaceSchemaLocation="http://sumo.dlr.de/xsd/duarouterConfiguration.xsd">

    <input>
        <net-file value="new_intersection_5.net.xml"/>
        <route-files value="trips.trips.xml"/>
    </input>

    <output>
        <output-file value="buses.rou.xml"/>
        <alternatives-output value="buses.rou.alt.xml"/>
    </output>

    <time>
        <begin value="0"/>
        <end value="3600"/>
    </time>

    <report>
        <no-warnings value="true"/>
        <ignore-errors value="true"/>
        <no-step-log value="true"/>
    </report>

</configuration>
-->

<routes xmlns:xsi="http://www.w3.org/2001/XMLSchema-instance" xsi:noNamespaceSchemaLocation="http://sumo.dlr.de/xsd/routes_file.xsd">
    <vehicle id="0" type="bus" depart="0.00">
        <route edges="gneE4 gneE12"/>
    </vehicle>
    <vehicle id="1" type="bus" depart="2.20">
        <route edges="gneE11 gneE13"/>
    </vehicle>
    <vehicle id="3" type="bus" depart="6.60">
        <route edges="gneE7 gneE12"/>
    </vehicle>
    <vehicle id="6" type="bus" depart="13.20">
        <route edges="gneE1 gneE12"/>
    </vehicle>
    <vehicle id="7" type="bus" depart="15.40">
        <route edges="gneE4 gneE2"/>
    </vehicle>
    <vehicle id="9" type="bus" depart="19.80">
        <route edges="gneE7 gneE12"/>
    </vehicle>
    <vehicle id="10" type="bus" depart="22.00">
        <route edges="gneE7 gneE3"/>
    </vehicle>
    <vehicle id="12" type="bus" depart="26.40">
        <route edges="gneE7 gneE13"/>
    </vehicle>
    <vehicle id="13" type="bus" depart="28.60">
        <route edges="gneE1 gneE12"/>
    </vehicle>
    <vehicle id="14" type="bus" depart="30.80">
        <route edges="gneE7 gneE3"/>
    </vehicle>
    <vehicle id="15" type="bus" depart="33.00">
        <route edges="gneE7 gneE3"/>
    </vehicle>
    <vehicle id="16" type="bus" depart="35.20">
        <route edges="gneE4 gneE8"/>
    </vehicle>
    <vehicle id="17" type="bus" depart="37.40">
        <route edges="gneE11 gneE2"/>
    </vehicle>
    <vehicle id="18" type="bus" depart="39.60">
        <route edges="gneE7 gneE3"/>
    </vehicle>
    <vehicle id="19" type="bus" depart="41.80">
        <route edges="gneE7 gneE2"/>
    </vehicle>
    <vehicle id="20" type="bus" depart="44.00">
        <route edges="gneE4 gneE12"/>
    </vehicle>
    <vehicle id="21" type="bus" depart="46.20">
        <route edges="gneE1 gneE13"/>
    </vehicle>
    <vehicle id="22" type="bus" depart="48.40">
        <route edges="gneE1 gneE13"/>
    </vehicle>
    <vehicle id="23" type="bus" depart="50.60">
        <route edges="gneE1 gneE13"/>
    </vehicle>
    <vehicle id="24" type="bus" depart="52.80">
        <route edges="gneE4 gneE13"/>
    </vehicle>
    <vehicle id="25" type="bus" depart="55.00">
        <route edges="gneE11 gneE13"/>
    </vehicle>
    <vehicle id="26" type="bus" depart="57.20">
        <route edges="gneE11 gneE8"/>
    </vehicle>
    <vehicle id="28" type="bus" depart="61.60">
        <route edges="gneE1 gneE3"/>
    </vehicle>
    <vehicle id="29" type="bus" depart="63.80">
        <route edges="gneE1 gneE13"/>
    </vehicle>
    <vehicle id="30" type="bus" depart="66.00">
        <route edges="gneE7 gneE3"/>
    </vehicle>
    <vehicle id="32" type="bus" depart="70.40">
        <route edges="gneE7 gneE3"/>
    </vehicle>
    <vehicle id="33" type="bus" depart="72.60">
        <route edges="gneE1 gneE12"/>
    </vehicle>
    <vehicle id="34" type="bus" depart="74.80">
        <route edges="gneE11 gneE13"/>
    </vehicle>
    <vehicle id="35" type="bus" depart="77.00">
        <route edges="gneE1 gneE8"/>
    </vehicle>
    <vehicle id="36" type="bus" depart="79.20">
        <route edges="gneE7 gneE13"/>
    </vehicle>
    <vehicle id="37" type="bus" depart="81.40">
        <route edges="gneE4 gneE13"/>
    </vehicle>
    <vehicle id="38" type="bus" depart="83.60">
        <route edges="gneE7 gneE2"/>
    </vehicle>
    <vehicle id="39" type="bus" depart="85.80">
        <route edges="gneE11 gneE13"/>
    </vehicle>
    <vehicle id="40" type="bus" depart="88.00">
        <route edges="gneE4 gneE13"/>
    </vehicle>
    <vehicle id="41" type="bus" depart="90.20">
        <route edges="gneE4 gneE8"/>
    </vehicle>
    <vehicle id="42" type="bus" depart="92.40">
        <route edges="gneE11 gneE13"/>
    </vehicle>
    <vehicle id="43" type="bus" depart="94.60">
        <route edges="gneE7 gneE2"/>
    </vehicle>
    <vehicle id="44" type="bus" depart="96.80">
        <route edges="gneE1 gneE12"/>
    </vehicle>
    <vehicle id="45" type="bus" depart="99.00">
        <route edges="gneE1 gneE3"/>
    </vehicle>
    <vehicle id="46" type="bus" depart="101.20">
        <route edges="gneE7 gneE2"/>
    </vehicle>
    <vehicle id="47" type="bus" depart="103.40">
        <route edges="gneE1 gneE13"/>
    </vehicle>
    <vehicle id="48" type="bus" depart="105.60">
        <route edges="gneE7 gneE2"/>
    </vehicle>
    <vehicle id="50" type="bus" depart="110.00">
        <route edges="gneE1 gneE3"/>
    </vehicle>
    <vehicle id="51" type="bus" depart="112.20">
        <route edges="gneE4 gneE2"/>
    </vehicle>
    <vehicle id="52" type="bus" depart="114.40">
        <route edges="gneE11 gneE3"/>
    </vehicle>
    <vehicle id="54" type="bus" depart="118.80">
        <route edges="gneE11 gneE8"/>
    </vehicle>
    <vehicle id="55" type="bus" depart="121.00">
        <route edges="gneE7 gneE13"/>
    </vehicle>
    <vehicle id="56" type="bus" depart="123.20">
        <route edges="gneE4 gneE12"/>
    </vehicle>
    <vehicle id="58" type="bus" depart="127.60">
        <route edges="gneE11 gneE3"/>
    </vehicle>
    <vehicle id="59" type="bus" depart="129.80">
        <route edges="gneE4 gneE12"/>
    </vehicle>
    <vehicle id="60" type="bus" depart="132.00">
        <route edges="gneE7 gneE2"/>
    </vehicle>
    <vehicle id="61" type="bus" depart="134.20">
        <route edges="gneE7 gneE2"/>
    </vehicle>
    <vehicle id="62" type="bus" depart="136.40">
        <route edges="gneE1 gneE13"/>
    </vehicle>
    <vehicle id="63" type="bus" depart="138.60">
        <route edges="gneE1 gneE8"/>
    </vehicle>
    <vehicle id="68" type="bus" depart="149.60">
        <route edges="gneE1 gneE3"/>
    </vehicle>
    <vehicle id="69" type="bus" depart="151.80">
        <route edges="gneE7 gneE12"/>
    </vehicle>
    <vehicle id="70" type="bus" depart="154.00">
        <route edges="gneE11 gneE2"/>
    </vehicle>
    <vehicle id="71" type="bus" depart="156.20">
        <route edges="gneE11 gneE8"/>
    </vehicle>
    <vehicle id="72" type="bus" depart="158.40">
        <route edges="gneE11 gneE13"/>
    </vehicle>
    <vehicle id="74" type="bus" depart="162.80">
        <route edges="gneE1 gneE13"/>
    </vehicle>
    <vehicle id="75" type="bus" depart="165.00">
        <route edges="gneE7 gneE3"/>
    </vehicle>
    <vehicle id="76" type="bus" depart="167.20">
        <route edges="gneE11 gneE2"/>
    </vehicle>
    <vehicle id="77" type="bus" depart="169.40">
        <route edges="gneE1 gneE13"/>
    </vehicle>
    <vehicle id="78" type="bus" depart="171.60">
        <route edges="gneE11 gneE2"/>
    </vehicle>
    <vehicle id="79" type="bus" depart="173.80">
        <route edges="gneE1 gneE13"/>
    </vehicle>
    <vehicle id="80" type="bus" depart="176.00">
        <route edges="gneE1 gneE3"/>
    </vehicle>
    <vehicle id="81" type="bus" depart="178.20">
        <route edges="gneE1 gneE8"/>
    </vehicle>
    <vehicle id="82" type="bus" depart="180.40">
        <route edges="gneE7 gneE12"/>
    </vehicle>
    <vehicle id="83" type="bus" depart="182.60">
        <route edges="gneE1 gneE3"/>
    </vehicle>
    <vehicle id="84" type="bus" depart="184.80">
        <route edges="gneE1 gneE12"/>
    </vehicle>
    <vehicle id="85" type="bus" depart="187.00">
        <route edges="gneE7 gneE2"/>
    </vehicle>
    <vehicle id="86" type="bus" depart="189.20">
        <route edges="gneE11 gneE3"/>
    </vehicle>
    <vehicle id="87" type="bus" depart="191.40">
        <route edges="gneE7 gneE12"/>
    </vehicle>
    <vehicle id="89" type="bus" depart="195.80">
        <route edges="gneE11 gneE2"/>
    </vehicle>
    <vehicle id="91" type="bus" depart="200.20">
        <route edges="gneE7 gneE12"/>
    </vehicle>
    <vehicle id="92" type="bus" depart="202.40">
        <route edges="gneE11 gneE13"/>
    </vehicle>
    <vehicle id="93" type="bus" depart="204.60">
        <route edges="gneE7 gneE13"/>
    </vehicle>
    <vehicle id="95" type="bus" depart="209.00">
        <route edges="gneE11 gneE13"/>
    </vehicle>
    <vehicle id="96" type="bus" depart="211.20">
        <route edges="gneE1 gneE8"/>
    </vehicle>
    <vehicle id="97" type="bus" depart="213.40">
        <route edges="gneE11 gneE8"/>
    </vehicle>
    <vehicle id="98" type="bus" depart="215.60">
        <route edges="gneE4 gneE12"/>
    </vehicle>
    <vehicle id="101" type="bus" depart="222.20">
        <route edges="gneE7 gneE12"/>
    </vehicle>
    <vehicle id="102" type="bus" depart="224.40">
        <route edges="gneE11 gneE13"/>
    </vehicle>
    <vehicle id="104" type="bus" depart="228.80">
        <route edges="gneE11 gneE8"/>
    </vehicle>
    <vehicle id="105" type="bus" depart="231.00">
        <route edges="gneE11 gneE3"/>
    </vehicle>
    <vehicle id="106" type="bus" depart="233.20">
        <route edges="gneE11 gneE2"/>
    </vehicle>
    <vehicle id="109" type="bus" depart="239.80">
        <route edges="gneE1 gneE13"/>
    </vehicle>
    <vehicle id="110" type="bus" depart="242.00">
        <route edges="gneE7 gneE2"/>
    </vehicle>
    <vehicle id="113" type="bus" depart="248.60">
        <route edges="gneE4 gneE8"/>
    </vehicle>
    <vehicle id="114" type="bus" depart="250.80">
        <route edges="gneE1 gneE8"/>
    </vehicle>
    <vehicle id="115" type="bus" depart="253.00">
        <route edges="gneE1 gneE12"/>
    </vehicle>
    <vehicle id="117" type="bus" depart="257.40">
        <route edges="gneE1 gneE12"/>
    </vehicle>
    <vehicle id="118" type="bus" depart="259.60">
        <route edges="gneE7 gneE13"/>
    </vehicle>
    <vehicle id="120" type="bus" depart="264.00">
        <route edges="gneE11 gneE2"/>
    </vehicle>
    <vehicle id="121" type="bus" depart="266.20">
        <route edges="gneE4 gneE8"/>
    </vehicle>
    <vehicle id="122" type="bus" depart="268.40">
        <route edges="gneE1 gneE3"/>
    </vehicle>
    <vehicle id="123" type="bus" depart="270.60">
        <route edges="gneE1 gneE13"/>
    </vehicle>
    <vehicle id="124" type="bus" depart="272.80">
        <route edges="gneE4 gneE13"/>
    </vehicle>
    <vehicle id="125" type="bus" depart="275.00">
        <route edges="gneE11 gneE3"/>
    </vehicle>
    <vehicle id="128" type="bus" depart="281.60">
        <route edges="gneE1 gneE13"/>
    </vehicle>
    <vehicle id="129" type="bus" depart="283.80">
        <route edges="gneE11 gneE8"/>
    </vehicle>
    <vehicle id="132" type="bus" depart="290.40">
        <route edges="gneE7 gneE3"/>
    </vehicle>
    <vehicle id="133" type="bus" depart="292.60">
        <route edges="gneE4 gneE8"/>
    </vehicle>
    <vehicle id="134" type="bus" depart="294.80">
        <route edges="gneE4 gneE12"/>
    </vehicle>
    <vehicle id="135" type="bus" depart="297.00">
        <route edges="gneE7 gneE13"/>
    </vehicle>
    <vehicle id="136" type="bus" depart="299.20">
        <route edges="gneE4 gneE8"/>
    </vehicle>
    <vehicle id="137" type="bus" depart="301.40">
        <route edges="gneE1 gneE12"/>
    </vehicle>
    <vehicle id="139" type="bus" depart="305.80">
        <route edges="gneE11 gneE3"/>
    </vehicle>
    <vehicle id="140" type="bus" depart="308.00">
        <route edges="gneE4 gneE13"/>
    </vehicle>
    <vehicle id="141" type="bus" depart="310.20">
        <route edges="gneE4 gneE13"/>
    </vehicle>
    <vehicle id="142" type="bus" depart="312.40">
        <route edges="gneE11 gneE8"/>
    </vehicle>
    <vehicle id="143" type="bus" depart="314.60">
        <route edges="gneE7 gneE12"/>
    </vehicle>
    <vehicle id="144" type="bus" depart="316.80">
        <route edges="gneE11 gneE13"/>
    </vehicle>
    <vehicle id="145" type="bus" depart="319.00">
        <route edges="gneE1 gneE3"/>
    </vehicle>
    <vehicle id="146" type="bus" depart="321.20">
        <route edges="gneE4 gneE13"/>
    </vehicle>
    <vehicle id="147" type="bus" depart="323.40">
        <route edges="gneE4 gneE2"/>
    </vehicle>
    <vehicle id="149" type="bus" depart="327.80">
        <route edges="gneE1 gneE8"/>
    </vehicle>
    <vehicle id="150" type="bus" depart="330.00">
        <route edges="gneE7 gneE2"/>
    </vehicle>
    <vehicle id="151" type="bus" depart="332.20">
        <route edges="gneE7 gneE2"/>
    </vehicle>
    <vehicle id="152" type="bus" depart="334.40">
        <route edges="gneE1 gneE12"/>
    </vehicle>
    <vehicle id="153" type="bus" depart="336.60">
        <route edges="gneE11 gneE8"/>
    </vehicle>
    <vehicle id="155" type="bus" depart="341.00">
        <route edges="gneE7 gneE13"/>
    </vehicle>
    <vehicle id="156" type="bus" depart="343.20">
        <route edges="gneE1 gneE12"/>
    </vehicle>
    <vehicle id="158" type="bus" depart="347.60">
        <route edges="gneE11 gneE3"/>
    </vehicle>
    <vehicle id="159" type="bus" depart="349.80">
        <route edges="gneE1 gneE8"/>
    </vehicle>
    <vehicle id="162" type="bus" depart="356.40">
        <route edges="gneE1 gneE3"/>
    </vehicle>
    <vehicle id="163" type="bus" depart="358.60">
        <route edges="gneE11 gneE8"/>
    </vehicle>
    <vehicle id="165" type="bus" depart="363.00">
        <route edges="gneE7 gneE13"/>
    </vehicle>
    <vehicle id="166" type="bus" depart="365.20">
        <route edges="gneE7 gneE12"/>
    </vehicle>
    <vehicle id="168" type="bus" depart="369.60">
        <route edges="gneE1 gneE8"/>
    </vehicle>
    <vehicle id="169" type="bus" depart="371.80">
        <route edges="gneE11 gneE13"/>
    </vehicle>
    <vehicle id="170" type="bus" depart="374.00">
        <route edges="gneE7 gneE13"/>
    </vehicle>
    <vehicle id="171" type="bus" depart="376.20">
        <route edges="gneE1 gneE12"/>
    </vehicle>
    <vehicle id="172" type="bus" depart="378.40">
        <route edges="gneE11 gneE8"/>
    </vehicle>
    <vehicle id="173" type="bus" depart="380.60">
        <route edges="gneE7 gneE13"/>
    </vehicle>
    <vehicle id="174" type="bus" depart="382.80">
        <route edges="gneE4 gneE13"/>
    </vehicle>
    <vehicle id="175" type="bus" depart="385.00">
        <route edges="gneE7 gneE2"/>
    </vehicle>
    <vehicle id="176" type="bus" depart="387.20">
        <route edges="gneE7 gneE12"/>
    </vehicle>
    <vehicle id="177" type="bus" depart="389.40">
        <route edges="gneE7 gneE12"/>
    </vehicle>
    <vehicle id="178" type="bus" depart="391.60">
        <route edges="gneE7 gneE13"/>
    </vehicle>
    <vehicle id="180" type="bus" depart="396.00">
        <route edges="gneE4 gneE13"/>
    </vehicle>
    <vehicle id="181" type="bus" depart="398.20">
        <route edges="gneE4 gneE2"/>
    </vehicle>
    <vehicle id="182" type="bus" depart="400.40">
        <route edges="gneE11 gneE2"/>
    </vehicle>
    <vehicle id="183" type="bus" depart="402.60">
        <route edges="gneE11 gneE3"/>
    </vehicle>
    <vehicle id="184" type="bus" depart="404.80">
        <route edges="gneE1 gneE8"/>
    </vehicle>
    <vehicle id="188" type="bus" depart="413.60">
        <route edges="gneE4 gneE13"/>
    </vehicle>
    <vehicle id="189" type="bus" depart="415.80">
        <route edges="gneE11 gneE8"/>
    </vehicle>
    <vehicle id="190" type="bus" depart="418.00">
        <route edges="gneE4 gneE13"/>
    </vehicle>
    <vehicle id="191" type="bus" depart="420.20">
        <route edges="gneE11 gneE2"/>
    </vehicle>
    <vehicle id="192" type="bus" depart="422.40">
        <route edges="gneE11 gneE13"/>
    </vehicle>
    <vehicle id="194" type="bus" depart="426.80">
        <route edges="gneE7 gneE3"/>
    </vehicle>
    <vehicle id="195" type="bus" depart="429.00">
        <route edges="gneE7 gneE3"/>
    </vehicle>
    <vehicle id="196" type="bus" depart="431.20">
        <route edges="gneE11 gneE2"/>
    </vehicle>
    <vehicle id="197" type="bus" depart="433.40">
        <route edges="gneE1 gneE13"/>
    </vehicle>
    <vehicle id="198" type="bus" depart="435.60">
        <route edges="gneE11 gneE2"/>
    </vehicle>
    <vehicle id="199" type="bus" depart="437.80">
        <route edges="gneE4 gneE2"/>
    </vehicle>
    <vehicle id="200" type="bus" depart="440.00">
        <route edges="gneE11 gneE13"/>
    </vehicle>
    <vehicle id="201" type="bus" depart="442.20">
        <route edges="gneE11 gneE8"/>
    </vehicle>
    <vehicle id="202" type="bus" depart="444.40">
        <route edges="gneE7 gneE12"/>
    </vehicle>
    <vehicle id="204" type="bus" depart="448.80">
        <route edges="gneE4 gneE13"/>
    </vehicle>
    <vehicle id="205" type="bus" depart="451.00">
        <route edges="gneE7 gneE3"/>
    </vehicle>
    <vehicle id="206" type="bus" depart="453.20">
        <route edges="gneE4 gneE13"/>
    </vehicle>
    <vehicle id="207" type="bus" depart="455.40">
        <route edges="gneE1 gneE12"/>
    </vehicle>
    <vehicle id="209" type="bus" depart="459.80">
        <route edges="gneE7 gneE12"/>
    </vehicle>
    <vehicle id="210" type="bus" depart="462.00">
        <route edges="gneE11 gneE3"/>
    </vehicle>
    <vehicle id="211" type="bus" depart="464.20">
        <route edges="gneE1 gneE3"/>
    </vehicle>
    <vehicle id="212" type="bus" depart="466.40">
        <route edges="gneE11 gneE13"/>
    </vehicle>
    <vehicle id="213" type="bus" depart="468.60">
        <route edges="gneE4 gneE12"/>
    </vehicle>
    <vehicle id="214" type="bus" depart="470.80">
        <route edges="gneE7 gneE3"/>
    </vehicle>
    <vehicle id="216" type="bus" depart="475.20">
        <route edges="gneE1 gneE8"/>
    </vehicle>
    <vehicle id="217" type="bus" depart="477.40">
        <route edges="gneE4 gneE12"/>
    </vehicle>
    <vehicle id="218" type="bus" depart="479.60">
        <route edges="gneE1 gneE8"/>
    </vehicle>
    <vehicle id="219" type="bus" depart="481.80">
        <route edges="gneE11 gneE8"/>
    </vehicle>
    <vehicle id="220" type="bus" depart="484.00">
        <route edges="gneE4 gneE8"/>
    </vehicle>
    <vehicle id="221" type="bus" depart="486.20">
        <route edges="gneE4 gneE8"/>
    </vehicle>
    <vehicle id="222" type="bus" depart="488.40">
        <route edges="gneE7 gneE3"/>
    </vehicle>
    <vehicle id="223" type="bus" depart="490.60">
        <route edges="gneE4 gneE2"/>
    </vehicle>
    <vehicle id="224" type="bus" depart="492.80">
        <route edges="gneE7 gneE2"/>
    </vehicle>
    <vehicle id="225" type="bus" depart="495.00">
        <route edges="gneE7 gneE3"/>
    </vehicle>
    <vehicle id="226" type="bus" depart="497.20">
        <route edges="gneE11 gneE13"/>
    </vehicle>
    <vehicle id="227" type="bus" depart="499.40">
        <route edges="gneE1 gneE3"/>
    </vehicle>
    <vehicle id="228" type="bus" depart="501.60">
        <route edges="gneE7 gneE2"/>
    </vehicle>
    <vehicle id="229" type="bus" depart="503.80">
        <route edges="gneE4 gneE13"/>
    </vehicle>
    <vehicle id="230" type="bus" depart="506.00">
        <route edges="gneE1 gneE13"/>
    </vehicle>
    <vehicle id="231" type="bus" depart="508.20">
        <route edges="gneE11 gneE13"/>
    </vehicle>
    <vehicle id="232" type="bus" depart="510.40">
        <route edges="gneE4 gneE12"/>
    </vehicle>
    <vehicle id="233" type="bus" depart="512.60">
        <route edges="gneE1 gneE3"/>
    </vehicle>
    <vehicle id="234" type="bus" depart="514.80">
        <route edges="gneE4 gneE12"/>
    </vehicle>
    <vehicle id="235" type="bus" depart="517.00">
        <route edges="gneE11 gneE2"/>
    </vehicle>
    <vehicle id="236" type="bus" depart="519.20">
        <route edges="gneE11 gneE13"/>
    </vehicle>
    <vehicle id="237" type="bus" depart="521.40">
        <route edges="gneE11 gneE8"/>
    </vehicle>
    <vehicle id="239" type="bus" depart="525.80">
        <route edges="gneE7 gneE3"/>
    </vehicle>
    <vehicle id="241" type="bus" depart="530.20">
        <route edges="gneE11 gneE3"/>
    </vehicle>
    <vehicle id="243" type="bus" depart="534.60">
        <route edges="gneE11 gneE3"/>
    </vehicle>
    <vehicle id="245" type="bus" depart="539.00">
        <route edges="gneE1 gneE13"/>
    </vehicle>
    <vehicle id="247" type="bus" depart="543.40">
        <route edges="gneE11 gneE3"/>
    </vehicle>
    <vehicle id="250" type="bus" depart="550.00">
        <route edges="gneE4 gneE12"/>
    </vehicle>
    <vehicle id="251" type="bus" depart="552.20">
        <route edges="gneE11 gneE2"/>
    </vehicle>
    <vehicle id="252" type="bus" depart="554.40">
        <route edges="gneE1 gneE3"/>
    </vehicle>
    <vehicle id="254" type="bus" depart="558.80">
        <route edges="gneE1 gneE13"/>
    </vehicle>
    <vehicle id="255" type="bus" depart="561.00">
        <route edges="gneE1 gneE13"/>
    </vehicle>
    <vehicle id="256" type="bus" depart="563.20">
        <route edges="gneE7 gneE13"/>
    </vehicle>
    <vehicle id="260" type="bus" depart="572.00">
        <route edges="gneE7 gneE13"/>
    </vehicle>
    <vehicle id="263" type="bus" depart="578.60">
        <route edges="gneE7 gneE12"/>
    </vehicle>
    <vehicle id="264" type="bus" depart="580.80">
        <route edges="gneE1 gneE12"/>
    </vehicle>
    <vehicle id="265" type="bus" depart="583.00">
        <route edges="gneE1 gneE3"/>
    </vehicle>
    <vehicle id="266" type="bus" depart="585.20">
        <route edges="gneE4 gneE13"/>
    </vehicle>
    <vehicle id="268" type="bus" depart="589.60">
        <route edges="gneE1 gneE3"/>
    </vehicle>
    <vehicle id="269" type="bus" depart="591.80">
        <route edges="gneE4 gneE12"/>
    </vehicle>
    <vehicle id="271" type="bus" depart="596.20">
        <route edges="gneE1 gneE12"/>
    </vehicle>
    <vehicle id="272" type="bus" depart="598.40">
        <route edges="gneE11 gneE3"/>
    </vehicle>
    <vehicle id="273" type="bus" depart="600.60">
        <route edges="gneE7 gneE13"/>
    </vehicle>
    <vehicle id="274" type="bus" depart="602.80">
        <route edges="gneE4 gneE12"/>
    </vehicle>
    <vehicle id="276" type="bus" depart="607.20">
        <route edges="gneE1 gneE3"/>
    </vehicle>
    <vehicle id="277" type="bus" depart="609.40">
        <route edges="gneE7 gneE3"/>
    </vehicle>
    <vehicle id="278" type="bus" depart="611.60">
        <route edges="gneE1 gneE8"/>
    </vehicle>
    <vehicle id="279" type="bus" depart="613.80">
        <route edges="gneE7 gneE13"/>
    </vehicle>
    <vehicle id="280" type="bus" depart="616.00">
        <route edges="gneE11 gneE13"/>
    </vehicle>
    <vehicle id="281" type="bus" depart="618.20">
        <route edges="gneE4 gneE13"/>
    </vehicle>
    <vehicle id="283" type="bus" depart="622.60">
        <route edges="gneE1 gneE8"/>
    </vehicle>
    <vehicle id="284" type="bus" depart="624.80">
        <route edges="gneE4 gneE8"/>
    </vehicle>
    <vehicle id="285" type="bus" depart="627.00">
        <route edges="gneE4 gneE2"/>
    </vehicle>
    <vehicle id="286" type="bus" depart="629.20">
        <route edges="gneE4 gneE8"/>
    </vehicle>
    <vehicle id="287" type="bus" depart="631.40">
        <route edges="gneE11 gneE8"/>
    </vehicle>
    <vehicle id="288" type="bus" depart="633.60">
        <route edges="gneE4 gneE2"/>
    </vehicle>
    <vehicle id="289" type="bus" depart="635.80">
        <route edges="gneE11 gneE3"/>
    </vehicle>
    <vehicle id="290" type="bus" depart="638.00">
        <route edges="gneE11 gneE8"/>
    </vehicle>
    <vehicle id="291" type="bus" depart="640.20">
        <route edges="gneE7 gneE12"/>
    </vehicle>
    <vehicle id="292" type="bus" depart="642.40">
        <route edges="gneE7 gneE13"/>
    </vehicle>
    <vehicle id="293" type="bus" depart="644.60">
        <route edges="gneE11 gneE3"/>
    </vehicle>
    <vehicle id="295" type="bus" depart="649.00">
        <route edges="gneE7 gneE12"/>
    </vehicle>
    <vehicle id="296" type="bus" depart="651.20">
        <route edges="gneE1 gneE3"/>
    </vehicle>
    <vehicle id="297" type="bus" depart="653.40">
        <route edges="gneE11 gneE8"/>
    </vehicle>
    <vehicle id="298" type="bus" depart="655.60">
        <route edges="gneE4 gneE13"/>
    </vehicle>
    <vehicle id="299" type="bus" depart="657.80">
        <route edges="gneE1 gneE8"/>
    </vehicle>
    <vehicle id="300" type="bus" depart="660.00">
        <route edges="gneE1 gneE3"/>
    </vehicle>
    <vehicle id="301" type="bus" depart="662.20">
        <route edges="gneE11 gneE3"/>
    </vehicle>
    <vehicle id="303" type="bus" depart="666.60">
        <route edges="gneE11 gneE3"/>
    </vehicle>
    <vehicle id="304" type="bus" depart="668.80">
        <route edges="gneE1 gneE13"/>
    </vehicle>
    <vehicle id="305" type="bus" depart="671.00">
        <route edges="gneE4 gneE13"/>
    </vehicle>
    <vehicle id="306" type="bus" depart="673.20">
        <route edges="gneE4 gneE2"/>
    </vehicle>
    <vehicle id="307" type="bus" depart="675.40">
        <route edges="gneE4 gneE2"/>
    </vehicle>
    <vehicle id="308" type="bus" depart="677.60">
        <route edges="gneE4 gneE13"/>
    </vehicle>
    <vehicle id="309" type="bus" depart="679.80">
        <route edges="gneE4 gneE13"/>
    </vehicle>
    <vehicle id="311" type="bus" depart="684.20">
        <route edges="gneE1 gneE12"/>
    </vehicle>
    <vehicle id="313" type="bus" depart="688.60">
        <route edges="gneE1 gneE13"/>
    </vehicle>
    <vehicle id="314" type="bus" depart="690.80">
        <route edges="gneE11 gneE3"/>
    </vehicle>
    <vehicle id="315" type="bus" depart="693.00">
        <route edges="gneE7 gneE2"/>
    </vehicle>
    <vehicle id="317" type="bus" depart="697.40">
        <route edges="gneE1 gneE13"/>
    </vehicle>
    <vehicle id="318" type="bus" depart="699.60">
        <route edges="gneE1 gneE12"/>
    </vehicle>
    <vehicle id="319" type="bus" depart="701.80">
        <route edges="gneE4 gneE13"/>
    </vehicle>
    <vehicle id="320" type="bus" depart="704.00">
        <route edges="gneE7 gneE2"/>
    </vehicle>
    <vehicle id="321" type="bus" depart="706.20">
        <route edges="gneE4 gneE12"/>
    </vehicle>
    <vehicle id="322" type="bus" depart="708.40">
        <route edges="gneE7 gneE2"/>
    </vehicle>
    <vehicle id="323" type="bus" depart="710.60">
        <route edges="gneE7 gneE2"/>
    </vehicle>
    <vehicle id="324" type="bus" depart="712.80">
        <route edges="gneE11 gneE2"/>
    </vehicle>
    <vehicle id="325" type="bus" depart="715.00">
        <route edges="gneE1 gneE12"/>
    </vehicle>
    <vehicle id="326" type="bus" depart="717.20">
        <route edges="gneE7 gneE2"/>
    </vehicle>
    <vehicle id="327" type="bus" depart="719.40">
        <route edges="gneE7 gneE2"/>
    </vehicle>
    <vehicle id="328" type="bus" depart="721.60">
        <route edges="gneE1 gneE3"/>
    </vehicle>
    <vehicle id="329" type="bus" depart="723.80">
        <route edges="gneE1 gneE12"/>
    </vehicle>
    <vehicle id="330" type="bus" depart="726.00">
        <route edges="gneE4 gneE13"/>
    </vehicle>
    <vehicle id="331" type="bus" depart="728.20">
        <route edges="gneE7 gneE12"/>
    </vehicle>
    <vehicle id="332" type="bus" depart="730.40">
        <route edges="gneE7 gneE3"/>
    </vehicle>
    <vehicle id="333" type="bus" depart="732.60">
        <route edges="gneE7 gneE13"/>
    </vehicle>
    <vehicle id="334" type="bus" depart="734.80">
        <route edges="gneE4 gneE2"/>
    </vehicle>
    <vehicle id="335" type="bus" depart="737.00">
        <route edges="gneE11 gneE8"/>
    </vehicle>
    <vehicle id="336" type="bus" depart="739.20">
        <route edges="gneE7 gneE13"/>
    </vehicle>
    <vehicle id="338" type="bus" depart="743.60">
        <route edges="gneE4 gneE8"/>
    </vehicle>
    <vehicle id="339" type="bus" depart="745.80">
        <route edges="gneE1 gneE13"/>
    </vehicle>
    <vehicle id="340" type="bus" depart="748.00">
        <route edges="gneE4 gneE12"/>
    </vehicle>
    <vehicle id="341" type="bus" depart="750.20">
        <route edges="gneE1 gneE12"/>
    </vehicle>
    <vehicle id="343" type="bus" depart="754.60">
        <route edges="gneE4 gneE13"/>
    </vehicle>
    <vehicle id="344" type="bus" depart="756.80">
        <route edges="gneE1 gneE3"/>
    </vehicle>
    <vehicle id="345" type="bus" depart="759.00">
        <route edges="gneE4 gneE2"/>
    </vehicle>
    <vehicle id="346" type="bus" depart="761.20">
        <route edges="gneE4 gneE8"/>
    </vehicle>