<?xml version="1.0" encoding="UTF-8"?>

<!-- generated on 01/28/21 20:41:14 by Eclipse SUMO netedit Version 1.8.0
<configuration xmlns:xsi="http://www.w3.org/2001/XMLSchema-instance" xsi:noNamespaceSchemaLocation="http://sumo.dlr.de/xsd/netconvertConfiguration.xsd">

    <output>
        <output-file value="C:\Users\IT%20Doctor\test_sumo\data3\five.net.net.xml"/>
    </output>

    <processing>
        <offset.disable-normalization value="true"/>
    </processing>

    <junctions>
        <no-turnarounds value="true"/>
    </junctions>

    <netedit>
        <route-files value="C:\Users\IT%20Doctor\test_sumo\data3\five.rou.xml"/>
    </netedit>

    <report>
        <aggregate-warnings value="5"/>
    </report>

</configuration>
-->

<routes xmlns:xsi="http://www.w3.org/2001/XMLSchema-instance" xsi:noNamespaceSchemaLocation="http://sumo.dlr.de/xsd/routes_file.xsd">
    <route edges="gneE0 gneE4 gneE22 gneE28" color="yellow" id="route_0"/>
    <route edges="gneE0 gneE2 gneE8 gneE14 gneE20 gneE27 gneE28" color="yellow" id="route_1"/>
    <route edges="gneE13 gneE9 gneE3 gneE6" color="yellow" id="route_10"/>
    <route edges="gneE13 gneE9 gneE3 gneE4 gneE22 gneE28" color="yellow" id="route_11"/>
    <route edges="gneE13 gneE14 gneE17 gneE24" color="yellow" id="route_12"/>
    <route edges="gneE13 gneE14 gneE18" color="yellow" id="route_13"/>
    <route edges="gneE25 gneE5 gneE1" color="yellow" id="route_14"/>
    <route edges="gneE25 gneE16 gneE18" color="yellow" id="route_15"/>
    <route edges="gneE19 gneE17 gneE24" color="yellow" id="route_16"/>
    <route edges="gneE7 gneE2 gneE8 gneE12" color="yellow" id="route_17"/>
    <route edges="gneE29 gneE23 gneE5 gneE1" color="yellow" id="route_18"/>
    <route edges="gneE29 gneE26 gneE21 gneE15 gneE10" color="yellow" id="route_19"/>
    <route edges="gneE0 gneE2 gneE8 gneE10" color="yellow" id="route_2"/>
    <route edges="gneE0 gneE4 gneE24" color="yellow" id="route_3"/>
    <route edges="gneE0 gneE4 gneE16 gneE18" color="yellow" id="route_4"/>
    <route edges="gneE0 gneE4 gneE24" color="yellow" id="route_5"/>
    <route edges="gneE11 gneE12" color="yellow" id="route_6"/>
    <route edges="gneE11 gneE14 gneE18" color="yellow" id="route_7"/>
    <route edges="gneE7 gneE1" color="yellow" id="route_8"/>
    <route edges="gneE7 gneE2 gneE8 gneE10" color="yellow" id="route_9"/>
</routes>
