<?xml version="1.0" encoding="UTF-8"?>

<!-- generated on 01/28/21 20:29:38 by Eclipse SUMO netedit Version 1.8.0
<configuration xmlns:xsi="http://www.w3.org/2001/XMLSchema-instance" xsi:noNamespaceSchemaLocation="http://sumo.dlr.de/xsd/netconvertConfiguration.xsd">

    <output>
        <output-file value="C:\Users\IT%20Doctor\test_sumo\data3\five.net.net.xml"/>
    </output>

    <processing>
        <offset.disable-normalization value="true"/>
    </processing>

    <junctions>
        <no-turnarounds value="true"/>
    </junctions>

    <report>
        <aggregate-warnings value="5"/>
    </report>

</configuration>
-->

<net version="1.6" junctionCornerDetail="5" limitTurnSpeed="5.50" xmlns:xsi="http://www.w3.org/2001/XMLSchema-instance" xsi:noNamespaceSchemaLocation="http://sumo.dlr.de/xsd/net_file.xsd">

    <location netOffset="0.00,0.00" convBoundary="-28.46,-210.65,544.13,159.88" origBoundary="10000000000.00,10000000000.00,-10000000000.00,-10000000000.00" projParameter="!"/>

    <type id="edgeType_0"/>

    <edge id=":gneJ1_0" function="internal">
        <lane id=":gneJ1_0_0" index="0" speed="6.51" length="9.03" shape="91.95,64.30 91.60,61.85 90.55,60.10 88.80,59.05 86.35,58.70"/>
    </edge>
    <edge id=":gneJ1_1" function="internal">
        <lane id=":gneJ1_1_0" index="0" speed="13.89" length="20.80" shape="91.95,64.30 91.95,43.50"/>
        <lane id=":gneJ1_1_1" index="1" speed="13.89" length="20.80" shape="95.15,64.30 95.15,43.50"/>
    </edge>
    <edge id=":gneJ1_3" function="internal">
        <lane id=":gneJ1_3_0" index="0" speed="9.26" length="6.96" shape="95.15,64.30 95.90,59.05 96.75,57.64"/>
    </edge>
    <edge id=":gneJ1_16" function="internal">
        <lane id=":gneJ1_16_0" index="0" speed="9.26" length="12.40" shape="96.75,57.64 98.15,55.30 101.90,53.05 107.15,52.30"/>
    </edge>
    <edge id=":gneJ1_4" function="internal">
        <lane id=":gneJ1_4_0" index="0" speed="6.51" length="9.03" shape="107.15,58.70 104.70,59.05 102.95,60.10 101.90,61.85 101.55,64.30"/>
    </edge>
    <edge id=":gneJ1_5" function="internal">
        <lane id=":gneJ1_5_0" index="0" speed="13.89" length="20.80" shape="107.15,58.70 86.35,58.70"/>
        <lane id=":gneJ1_5_1" index="1" speed="13.89" length="20.80" shape="107.15,55.50 86.35,55.50"/>
    </edge>
    <edge id=":gneJ1_7" function="internal">
        <lane id=":gneJ1_7_0" index="0" speed="9.26" length="6.96" shape="107.15,55.50 101.90,54.75 100.48,53.90"/>
    </edge>
    <edge id=":gneJ1_17" function="internal">
        <lane id=":gneJ1_17_0" index="0" speed="9.26" length="12.40" shape="100.48,53.90 98.15,52.50 95.90,48.75 95.15,43.50"/>
    </edge>
    <edge id=":gneJ1_8" function="internal">
        <lane id=":gneJ1_8_0" index="0" speed="6.51" length="9.03" shape="101.55,43.50 101.90,45.95 102.95,47.70 104.70,48.75 107.15,49.10"/>
    </edge>
    <edge id=":gneJ1_9" function="internal">
        <lane id=":gneJ1_9_0" index="0" speed="13.89" length="20.80" shape="101.55,43.50 101.55,64.30"/>
        <lane id=":gneJ1_9_1" index="1" speed="13.89" length="20.80" shape="98.35,43.50 98.35,64.30"/>
    </edge>
    <edge id=":gneJ1_11" function="internal">
        <lane id=":gneJ1_11_0" index="0" speed="9.26" length="6.96" shape="98.35,43.50 97.60,48.75 96.75,50.17"/>
    </edge>
    <edge id=":gneJ1_18" function="internal">
        <lane id=":gneJ1_18_0" index="0" speed="9.26" length="12.40" shape="96.75,50.17 95.35,52.50 91.60,54.75 86.35,55.50"/>
    </edge>
    <edge id=":gneJ1_12" function="internal">
        <lane id=":gneJ1_12_0" index="0" speed="6.51" length="9.03" shape="86.35,49.10 88.80,48.75 90.55,47.70 91.60,45.95 91.95,43.50"/>
    </edge>
    <edge id=":gneJ1_13" function="internal">
        <lane id=":gneJ1_13_0" index="0" speed="13.89" length="20.80" shape="86.35,49.10 107.15,49.10"/>
        <lane id=":gneJ1_13_1" index="1" speed="13.89" length="20.80" shape="86.35,52.30 107.15,52.30"/>
    </edge>
    <edge id=":gneJ1_15" function="internal">
        <lane id=":gneJ1_15_0" index="0" speed="9.26" length="6.96" shape="86.35,52.30 91.60,53.05 93.01,53.90"/>
    </edge>
    <edge id=":gneJ1_19" function="internal">
        <lane id=":gneJ1_19_0" index="0" speed="9.26" length="12.40" shape="93.01,53.90 95.35,55.30 97.60,59.05 98.35,64.30"/>
    </edge>
    <edge id=":gneJ10_0" function="internal">
        <lane id=":gneJ10_0_0" index="0" speed="8.96" length="18.31" shape="389.37,-131.43 394.36,-130.74 397.89,-128.62 399.98,-125.06 400.63,-120.08"/>
    </edge>
    <edge id=":gneJ10_1" function="internal">
        <lane id=":gneJ10_1_0" index="0" speed="7.65" length="13.08" shape="389.39,-128.23 392.95,-127.74 395.48,-126.22 396.97,-123.68 397.43,-120.12"/>
    </edge>
    <edge id=":gneJ10_2" function="internal">
        <lane id=":gneJ10_2_0" index="0" speed="3.90" length="2.62" shape="391.03,-120.21 390.94,-120.92 390.64,-121.43 390.13,-121.73 389.42,-121.83"/>
    </edge>
    <edge id=":gneJ10_3" function="internal">
        <lane id=":gneJ10_3_0" index="0" speed="6.07" length="7.85" shape="394.23,-120.16 393.95,-122.30 393.06,-123.82 391.54,-124.73 389.41,-125.03"/>
    </edge>
    <edge id=":gneJ11_0" function="internal">
        <lane id=":gneJ11_0_0" index="0" speed="13.89" length="20.79" shape="403.94,58.46 383.15,58.48"/>
        <lane id=":gneJ11_0_1" index="1" speed="13.89" length="20.79" shape="403.94,55.26 383.15,55.28"/>
    </edge>
    <edge id=":gneJ11_2" function="internal">
        <lane id=":gneJ11_2_0" index="0" speed="9.24" length="6.96" shape="403.94,55.26 398.65,54.50 397.26,53.67"/>
    </edge>
    <edge id=":gneJ11_8" function="internal">
        <lane id=":gneJ11_8_0" index="0" speed="9.24" length="12.50" shape="397.26,53.67 394.90,52.23 392.68,48.45 391.99,43.15"/>
    </edge>
    <edge id=":gneJ11_3" function="internal">
        <lane id=":gneJ11_3_0" index="0" speed="6.48" length="9.03" shape="398.39,43.24 398.71,45.70 399.74,47.46 401.48,48.51 403.94,48.86"/>
    </edge>
    <edge id=":gneJ11_4" function="internal">
        <lane id=":gneJ11_4_0" index="0" speed="9.32" length="19.39" shape="395.19,43.20 394.38,48.47 392.10,52.25 388.36,54.52 383.15,55.28"/>
    </edge>
    <edge id=":gneJ11_5" function="internal">
        <lane id=":gneJ11_5_0" index="0" speed="6.59" length="9.18" shape="383.14,48.88 385.58,48.51 387.34,47.43 388.41,45.63 388.79,43.11"/>
    </edge>
    <edge id=":gneJ11_6" function="internal">
        <lane id=":gneJ11_6_0" index="0" speed="13.89" length="20.80" shape="383.14,48.88 403.94,48.86"/>
        <lane id=":gneJ11_6_1" index="1" speed="13.89" length="20.80" shape="383.14,52.08 403.94,52.06"/>
    </edge>
    <edge id=":gneJ2_0" function="internal">
        <lane id=":gneJ2_0_0" index="0" speed="13.89" length="0.31" shape="91.95,-36.74 91.95,-37.05"/>
        <lane id=":gneJ2_0_1" index="1" speed="13.89" length="0.31" shape="95.15,-36.74 95.15,-37.04"/>
    </edge>
    <edge id=":gneJ2_2" function="internal">
        <lane id=":gneJ2_2_0" index="0" speed="13.89" length="0.29" shape="101.55,-37.03 101.55,-36.74"/>
        <lane id=":gneJ2_2_1" index="1" speed="13.89" length="0.29" shape="98.35,-37.04 98.35,-36.74"/>
    </edge>
    <edge id=":gneJ3_0" function="internal">
        <lane id=":gneJ3_0_0" index="0" speed="6.58" length="9.17" shape="238.05,64.43 237.67,61.92 236.60,60.13 234.83,59.06 232.37,58.70"/>
    </edge>
    <edge id=":gneJ3_1" function="internal">
        <lane id=":gneJ3_1_0" index="0" speed="13.89" length="20.98" shape="238.05,64.43 238.00,43.41"/>
        <lane id=":gneJ3_1_1" index="1" speed="13.89" length="20.98" shape="241.25,64.39 241.20,43.44"/>
    </edge>
    <edge id=":gneJ3_3" function="internal">
        <lane id=":gneJ3_3_0" index="0" speed="9.24" length="7.09" shape="241.25,64.39 241.95,59.10 242.84,57.58"/>
    </edge>
    <edge id=":gneJ3_16" function="internal">
        <lane id=":gneJ3_16_0" index="0" speed="9.24" length="12.34" shape="242.84,57.58 244.17,55.32 247.91,53.05 253.19,52.29"/>
    </edge>
    <edge id=":gneJ3_4" function="internal">
        <lane id=":gneJ3_4_0" index="0" speed="6.48" length="9.03" shape="253.20,58.69 250.75,59.04 249.01,60.10 247.97,61.85 247.65,64.31"/>
    </edge>
    <edge id=":gneJ3_5" function="internal">
        <lane id=":gneJ3_5_0" index="0" speed="13.89" length="20.83" shape="253.20,58.69 232.37,58.70"/>
        <lane id=":gneJ3_5_1" index="1" speed="13.89" length="20.83" shape="253.20,55.49 232.37,55.50"/>
    </edge>
    <edge id=":gneJ3_7" function="internal">
        <lane id=":gneJ3_7_0" index="0" speed="9.25" length="6.98" shape="253.20,55.49 247.92,54.74 246.50,53.89"/>
    </edge>
    <edge id=":gneJ3_17" function="internal">
        <lane id=":gneJ3_17_0" index="0" speed="9.25" length="12.45" shape="246.50,53.89 244.16,52.48 241.92,48.71 241.20,43.44"/>
    </edge>
    <edge id=":gneJ3_8" function="internal">
        <lane id=":gneJ3_8_0" index="0" speed="6.49" length="9.04" shape="247.60,43.48 247.94,45.94 248.98,47.69 250.73,48.74 253.19,49.09"/>
    </edge>
    <edge id=":gneJ3_9" function="internal">
        <lane id=":gneJ3_9_0" index="0" speed="13.89" length="20.86" shape="247.60,43.48 247.65,64.31"/>
        <lane id=":gneJ3_9_1" index="1" speed="13.89" length="20.86" shape="244.40,43.46 244.45,64.35"/>
    </edge>
    <edge id=":gneJ3_11" function="internal">
        <lane id=":gneJ3_11_0" index="0" speed="9.29" length="6.88" shape="244.40,43.46 243.62,48.73 242.82,50.06"/>
    </edge>
    <edge id=":gneJ3_18" function="internal">
        <lane id=":gneJ3_18_0" index="0" speed="9.29" length="12.50" shape="242.82,50.06 241.35,52.49 237.60,54.75 232.37,55.50"/>
    </edge>
    <edge id=":gneJ3_12" function="internal">
        <lane id=":gneJ3_12_0" index="0" speed="6.55" length="9.11" shape="232.37,49.10 234.82,48.75 236.57,47.68 237.63,45.90 238.00,43.41"/>
    </edge>
    <edge id=":gneJ3_13" function="internal">
        <lane id=":gneJ3_13_0" index="0" speed="13.89" length="20.82" shape="232.37,49.10 253.19,49.09"/>
        <lane id=":gneJ3_13_1" index="1" speed="13.89" length="20.82" shape="232.37,52.30 253.19,52.29"/>
    </edge>
    <edge id=":gneJ3_15" function="internal">
        <lane id=":gneJ3_15_0" index="0" speed="9.31" length="6.92" shape="232.37,52.30 237.60,53.05 239.00,53.90"/>
    </edge>
    <edge id=":gneJ3_19" function="internal">
        <lane id=":gneJ3_19_0" index="0" speed="9.31" length="12.49" shape="239.00,53.90 241.36,55.31 243.64,59.08 244.45,64.35"/>
    </edge>
    <edge id=":gneJ5_0" function="internal">
        <lane id=":gneJ5_0_0" index="0" speed="6.56" length="9.14" shape="107.40,-120.42 104.92,-120.05 103.15,-118.98 102.08,-117.21 101.72,-114.74"/>
    </edge>
    <edge id=":gneJ5_1" function="internal">
        <lane id=":gneJ5_1_0" index="0" speed="13.89" length="20.86" shape="107.40,-120.42 86.53,-120.37"/>
        <lane id=":gneJ5_1_1" index="1" speed="13.89" length="20.86" shape="107.38,-123.62 86.53,-123.57"/>
    </edge>
    <edge id=":gneJ5_3" function="internal">
        <lane id=":gneJ5_3_0" index="0" speed="9.25" length="6.99" shape="107.38,-123.62 102.11,-124.34 100.67,-125.20"/>
    </edge>
    <edge id=":gneJ5_16" function="internal">
        <lane id=":gneJ5_16_0" index="0" speed="9.25" length="12.40" shape="100.67,-125.20 98.35,-126.58 96.09,-130.33 95.34,-135.60"/>
    </edge>
    <edge id=":gneJ5_4" function="internal">
        <lane id=":gneJ5_4_0" index="0" speed="6.50" length="9.03" shape="101.74,-135.60 102.09,-133.15 103.14,-131.40 104.90,-130.36 107.35,-130.02"/>
    </edge>
    <edge id=":gneJ5_5" function="internal">
        <lane id=":gneJ5_5_0" index="0" speed="13.89" length="20.85" shape="101.74,-135.60 101.72,-114.74"/>
        <lane id=":gneJ5_5_1" index="1" speed="13.89" length="20.85" shape="98.54,-135.60 98.52,-114.75"/>
    </edge>
    <edge id=":gneJ5_7" function="internal">
        <lane id=":gneJ5_7_0" index="0" speed="9.27" length="6.98" shape="98.54,-135.60 97.79,-130.33 96.93,-128.90"/>
    </edge>
    <edge id=":gneJ5_17" function="internal">
        <lane id=":gneJ5_17_0" index="0" speed="9.27" length="12.41" shape="96.93,-128.90 95.54,-126.57 91.78,-124.32 86.53,-123.57"/>
    </edge>
    <edge id=":gneJ5_8" function="internal">
        <lane id=":gneJ5_8_0" index="0" speed="6.52" length="9.07" shape="86.53,-129.97 88.98,-130.32 90.74,-131.37 91.79,-133.13 92.14,-135.60"/>
    </edge>
    <edge id=":gneJ5_9" function="internal">
        <lane id=":gneJ5_9_0" index="0" speed="13.89" length="20.83" shape="86.53,-129.97 107.35,-130.02"/>
        <lane id=":gneJ5_9_1" index="1" speed="13.89" length="20.83" shape="86.53,-126.77 107.37,-126.82"/>
    </edge>
    <edge id=":gneJ5_11" function="internal">
        <lane id=":gneJ5_11_0" index="0" speed="9.25" length="6.93" shape="86.53,-126.77 91.78,-126.02 93.17,-125.18"/>
    </edge>
    <edge id=":gneJ5_18" function="internal">
        <lane id=":gneJ5_18_0" index="0" speed="9.25" length="12.44" shape="93.17,-125.18 95.53,-123.76 97.78,-120.01 98.52,-114.75"/>
    </edge>
    <edge id=":gneJ5_12" function="internal">
        <lane id=":gneJ5_12_0" index="0" speed="6.50" length="9.03" shape="92.12,-114.76 91.77,-117.21 90.73,-118.97 88.98,-120.02 86.53,-120.37"/>
    </edge>
    <edge id=":gneJ5_13" function="internal">
        <lane id=":gneJ5_13_0" index="0" speed="13.89" length="20.84" shape="92.12,-114.76 92.14,-135.60"/>
        <lane id=":gneJ5_13_1" index="1" speed="13.89" length="20.84" shape="95.32,-114.76 95.34,-135.60"/>
    </edge>
    <edge id=":gneJ5_15" function="internal">
        <lane id=":gneJ5_15_0" index="0" speed="9.30" length="6.95" shape="95.32,-114.76 96.08,-120.01 96.93,-121.42"/>
    </edge>
    <edge id=":gneJ5_19" function="internal">
        <lane id=":gneJ5_19_0" index="0" speed="9.30" length="12.46" shape="96.93,-121.42 98.34,-123.77 102.11,-126.04 107.37,-126.82"/>
    </edge>
    <edge id=":gneJ8_0" function="internal">
        <lane id=":gneJ8_0_0" index="0" speed="6.60" length="9.24" shape="254.46,-121.15 251.97,-120.78 250.18,-119.69 249.10,-117.90 248.73,-115.38"/>
    </edge>
    <edge id=":gneJ8_1" function="internal">
        <lane id=":gneJ8_1_0" index="0" speed="13.89" length="20.91" shape="254.46,-121.15 233.55,-121.04"/>
        <lane id=":gneJ8_1_1" index="1" speed="13.89" length="20.91" shape="254.44,-124.35 233.53,-124.24"/>
    </edge>
    <edge id=":gneJ8_3" function="internal">
        <lane id=":gneJ8_3_0" index="0" speed="9.25" length="6.96" shape="254.44,-124.35 249.18,-125.07 247.76,-125.91"/>
    </edge>
    <edge id=":gneJ8_16" function="internal">
        <lane id=":gneJ8_16_0" index="0" speed="9.25" length="12.43" shape="247.76,-125.91 245.41,-127.31 243.16,-131.06 242.40,-136.33"/>
    </edge>
    <edge id=":gneJ8_4" function="internal">
        <lane id=":gneJ8_4_0" index="0" speed="6.50" length="9.03" shape="248.80,-136.33 249.15,-133.88 250.21,-132.13 251.96,-131.09 254.41,-130.75"/>
    </edge>
    <edge id=":gneJ8_5" function="internal">
        <lane id=":gneJ8_5_0" index="0" speed="13.89" length="20.93" shape="248.80,-136.33 248.73,-115.38"/>
        <lane id=":gneJ8_5_1" index="1" speed="13.89" length="20.93" shape="245.60,-136.33 245.53,-115.41"/>
    </edge>
    <edge id=":gneJ8_7" function="internal">
        <lane id=":gneJ8_7_0" index="0" speed="9.30" length="7.01" shape="245.60,-136.33 244.85,-131.06 243.98,-129.62"/>
    </edge>
    <edge id=":gneJ8_17" function="internal">
        <lane id=":gneJ8_17_0" index="0" speed="9.30" length="12.45" shape="243.98,-129.62 242.59,-127.29 238.81,-125.02 233.53,-124.24"/>
    </edge>
    <edge id=":gneJ8_8" function="internal">
        <lane id=":gneJ8_8_0" index="0" speed="6.56" length="9.17" shape="233.50,-130.64 236.00,-131.01 237.78,-132.08 238.85,-133.85 239.20,-136.33"/>
    </edge>
    <edge id=":gneJ8_9" function="internal">
        <lane id=":gneJ8_9_0" index="0" speed="13.89" length="20.91" shape="233.50,-130.64 254.41,-130.75"/>
        <lane id=":gneJ8_9_1" index="1" speed="13.89" length="20.91" shape="233.52,-127.44 254.43,-127.55"/>
    </edge>
    <edge id=":gneJ8_11" function="internal">
        <lane id=":gneJ8_11_0" index="0" speed="9.24" length="6.97" shape="233.52,-127.44 238.81,-126.71 240.21,-125.88"/>
    </edge>
    <edge id=":gneJ8_18" function="internal">
        <lane id=":gneJ8_18_0" index="0" speed="9.24" length="12.48" shape="240.21,-125.88 242.57,-124.46 244.81,-120.70 245.53,-115.41"/>
    </edge>
    <edge id=":gneJ8_12" function="internal">
        <lane id=":gneJ8_12_0" index="0" speed="6.48" length="9.03" shape="239.13,-115.45 238.80,-117.91 237.75,-119.66 236.01,-120.70 233.55,-121.04"/>
    </edge>
    <edge id=":gneJ8_13" function="internal">
        <lane id=":gneJ8_13_0" index="0" speed="13.89" length="20.89" shape="239.13,-115.45 239.20,-136.33"/>
        <lane id=":gneJ8_13_1" index="1" speed="13.89" length="20.89" shape="242.33,-115.43 242.40,-136.33"/>
    </edge>
    <edge id=":gneJ8_15" function="internal">
        <lane id=":gneJ8_15_0" index="0" speed="9.33" length="6.96" shape="242.33,-115.43 243.12,-120.71 243.95,-122.09"/>
    </edge>
    <edge id=":gneJ8_19" function="internal">
        <lane id=":gneJ8_19_0" index="0" speed="9.33" length="12.52" shape="243.95,-122.09 245.40,-124.49 249.17,-126.77 254.43,-127.55"/>
    </edge>

    <edge id="gneE0" from="gneJ0" to="gneJ1" priority="-1">
        <lane id="gneE0_0" index="0" speed="13.89" length="114.81" shape="-28.46,49.10 86.35,49.10"/>
        <lane id="gneE0_1" index="1" speed="13.89" length="114.81" shape="-28.46,52.30 86.35,52.30"/>
    </edge>
    <edge id="gneE1" from="gneJ1" to="gneJ0" priority="-1">
        <lane id="gneE1_0" index="0" speed="13.89" length="114.81" shape="86.35,58.70 -28.46,58.70"/>
        <lane id="gneE1_1" index="1" speed="13.89" length="114.81" shape="86.35,55.50 -28.46,55.50"/>
    </edge>
    <edge id="gneE10" from="gneJ5" to="gneJ6" priority="-1">
        <lane id="gneE10_0" index="0" speed="13.89" length="114.30" shape="86.53,-120.37 -27.77,-120.37"/>
        <lane id="gneE10_1" index="1" speed="13.89" length="114.30" shape="86.53,-123.57 -27.77,-123.57"/>
    </edge>
    <edge id="gneE11" from="gneJ6" to="gneJ5" priority="-1">
        <lane id="gneE11_0" index="0" speed="13.89" length="114.30" shape="-27.77,-129.97 86.53,-129.97"/>
        <lane id="gneE11_1" index="1" speed="13.89" length="114.30" shape="-27.77,-126.77 86.53,-126.77"/>
    </edge>
    <edge id="gneE12" from="gneJ5" to="gneJ7" priority="-1">
        <lane id="gneE12_0" index="0" speed="13.89" length="66.33" shape="92.14,-135.60 92.14,-201.93"/>
        <lane id="gneE12_1" index="1" speed="13.89" length="66.33" shape="95.34,-135.60 95.34,-201.93"/>
    </edge>
    <edge id="gneE13" from="gneJ7" to="gneJ5" priority="-1">
        <lane id="gneE13_0" index="0" speed="13.89" length="66.33" shape="101.74,-201.93 101.74,-135.60"/>
        <lane id="gneE13_1" index="1" speed="13.89" length="66.33" shape="98.54,-201.93 98.54,-135.60"/>
    </edge>
    <edge id="gneE14" from="gneJ5" to="gneJ8" priority="-1">
        <lane id="gneE14_0" index="0" speed="13.89" length="126.15" shape="107.35,-130.02 233.50,-130.64"/>
        <lane id="gneE14_1" index="1" speed="13.89" length="126.15" shape="107.37,-126.82 233.52,-127.44"/>
    </edge>
    <edge id="gneE15" from="gneJ8" to="gneJ5" priority="-1">
        <lane id="gneE15_0" index="0" speed="13.89" length="126.15" shape="233.55,-121.04 107.40,-120.42"/>
        <lane id="gneE15_1" index="1" speed="13.89" length="126.15" shape="233.53,-124.24 107.38,-123.62"/>
    </edge>
    <edge id="gneE16" from="gneJ3" to="gneJ8" priority="-1">
        <lane id="gneE16_0" index="0" speed="13.89" length="158.87" shape="238.00,43.41 239.13,-115.45"/>
        <lane id="gneE16_1" index="1" speed="13.89" length="158.87" shape="241.20,43.44 242.33,-115.43"/>
    </edge>
    <edge id="gneE17" from="gneJ8" to="gneJ3" priority="-1">
        <lane id="gneE17_0" index="0" speed="13.89" length="158.87" shape="248.73,-115.38 247.60,43.48"/>
        <lane id="gneE17_1" index="1" speed="13.89" length="158.87" shape="245.53,-115.41 244.40,43.46"/>
    </edge>
    <edge id="gneE18" from="gneJ8" to="gneJ9" priority="-1">
        <lane id="gneE18_0" index="0" speed="13.89" length="74.32" shape="239.20,-136.33 239.20,-210.65"/>
        <lane id="gneE18_1" index="1" speed="13.89" length="74.32" shape="242.40,-136.33 242.40,-210.65"/>
    </edge>
    <edge id="gneE19" from="gneJ9" to="gneJ8" priority="-1">
        <lane id="gneE19_0" index="0" speed="13.89" length="74.32" shape="248.80,-210.65 248.80,-136.33"/>
        <lane id="gneE19_1" index="1" speed="13.89" length="74.32" shape="245.60,-210.65 245.60,-136.33"/>
    </edge>
    <edge id="gneE2" from="gneJ1" to="gneJ2" priority="-1">
        <lane id="gneE2_0" index="0" speed="13.89" length="80.24" shape="91.95,43.50 91.95,-36.74"/>
        <lane id="gneE2_1" index="1" speed="13.89" length="80.24" shape="95.15,43.50 95.15,-36.74"/>
    </edge>
    <edge id="gneE20" from="gneJ8" to="gneJ10" priority="-1">
        <lane id="gneE20_0" index="0" speed="13.89" length="134.96" shape="254.41,-130.75 389.37,-131.43"/>
        <lane id="gneE20_1" index="1" speed="13.89" length="134.96" shape="254.43,-127.55 389.39,-128.23"/>
    </edge>
    <edge id="gneE21" from="gneJ10" to="gneJ8" priority="-1">
        <lane id="gneE21_0" index="0" speed="13.89" length="134.96" shape="389.42,-121.83 254.46,-121.15"/>
        <lane id="gneE21_1" index="1" speed="13.89" length="134.96" shape="389.41,-125.03 254.44,-124.35"/>
    </edge>
    <edge id="gneE22" from="gneJ3" to="gneJ11" priority="-1">
        <lane id="gneE22_0" index="0" speed="13.89" length="129.95" shape="253.19,49.09 383.14,48.88"/>
        <lane id="gneE22_1" index="1" speed="13.89" length="129.95" shape="253.19,52.29 383.14,52.08"/>
    </edge>
    <edge id="gneE23" from="gneJ11" to="gneJ3" priority="-1">
        <lane id="gneE23_0" index="0" speed="13.89" length="129.95" shape="383.15,58.48 253.20,58.69"/>
        <lane id="gneE23_1" index="1" speed="13.89" length="129.95" shape="383.15,55.28 253.20,55.49"/>
    </edge>
    <edge id="gneE24" from="gneJ3" to="gneJ12" priority="-1">
        <lane id="gneE24_0" index="0" speed="13.89" length="95.52" shape="247.65,64.31 248.80,159.82"/>
        <lane id="gneE24_1" index="1" speed="13.89" length="95.52" shape="244.45,64.35 245.60,159.86"/>
    </edge>
    <edge id="gneE25" from="gneJ12" to="gneJ3" priority="-1">
        <lane id="gneE25_0" index="0" speed="13.89" length="95.52" shape="239.20,159.94 238.05,64.43"/>
        <lane id="gneE25_1" index="1" speed="13.89" length="95.52" shape="242.40,159.90 241.25,64.39"/>
    </edge>
    <edge id="gneE26" from="gneJ11" to="gneJ10" priority="-1">
        <lane id="gneE26_0" index="0" speed="13.89" length="163.33" shape="388.79,43.11 391.03,-120.21"/>
        <lane id="gneE26_1" index="1" speed="13.89" length="163.33" shape="391.99,43.15 394.23,-120.16"/>
    </edge>
    <edge id="gneE27" from="gneJ10" to="gneJ11" priority="-1">
        <lane id="gneE27_0" index="0" speed="13.89" length="163.33" shape="400.63,-120.08 398.39,43.24"/>
        <lane id="gneE27_1" index="1" speed="13.89" length="163.33" shape="397.43,-120.12 395.19,43.20"/>
    </edge>
    <edge id="gneE28" from="gneJ11" to="gneJ13" priority="-1">
        <lane id="gneE28_0" index="0" speed="13.89" length="140.19" shape="403.94,48.86 544.13,48.86"/>
        <lane id="gneE28_1" index="1" speed="13.89" length="140.19" shape="403.94,52.06 544.13,52.06"/>
    </edge>
    <edge id="gneE29" from="gneJ13" to="gneJ11" priority="-1">
        <lane id="gneE29_0" index="0" speed="13.89" length="140.19" shape="544.13,58.46 403.94,58.46"/>
        <lane id="gneE29_1" index="1" speed="13.89" length="140.19" shape="544.13,55.26 403.94,55.26"/>
    </edge>
    <edge id="gneE3" from="gneJ2" to="gneJ1" priority="-1">
        <lane id="gneE3_0" index="0" speed="13.89" length="80.24" shape="101.55,-36.74 101.55,43.50"/>
        <lane id="gneE3_1" index="1" speed="13.89" length="80.24" shape="98.35,-36.74 98.35,43.50"/>
    </edge>
    <edge id="gneE4" from="gneJ1" to="gneJ3" priority="-1">
        <lane id="gneE4_0" index="0" speed="13.89" length="125.23" shape="107.15,49.10 232.37,49.10"/>
        <lane id="gneE4_1" index="1" speed="13.89" length="125.23" shape="107.15,52.30 232.37,52.30"/>
    </edge>
    <edge id="gneE5" from="gneJ3" to="gneJ1" priority="-1">
        <lane id="gneE5_0" index="0" speed="13.89" length="125.23" shape="232.37,58.70 107.15,58.70"/>
        <lane id="gneE5_1" index="1" speed="13.89" length="125.23" shape="232.37,55.50 107.15,55.50"/>
    </edge>
    <edge id="gneE6" from="gneJ1" to="gneJ4" priority="-1">
        <lane id="gneE6_0" index="0" speed="13.89" length="79.80" shape="101.55,64.30 101.55,144.10"/>
        <lane id="gneE6_1" index="1" speed="13.89" length="79.80" shape="98.35,64.30 98.35,144.10"/>
    </edge>
    <edge id="gneE7" from="gneJ4" to="gneJ1" priority="-1">
        <lane id="gneE7_0" index="0" speed="13.89" length="79.80" shape="91.95,144.10 91.95,64.30"/>
        <lane id="gneE7_1" index="1" speed="13.89" length="79.80" shape="95.15,144.10 95.15,64.30"/>
    </edge>
    <edge id="gneE8" from="gneJ2" to="gneJ5" priority="-1">
        <lane id="gneE8_0" index="0" speed="13.89" length="77.71" shape="91.95,-37.05 92.12,-114.76"/>
        <lane id="gneE8_1" index="1" speed="13.89" length="77.71" shape="95.15,-37.04 95.32,-114.76"/>
    </edge>
    <edge id="gneE9" from="gneJ5" to="gneJ2" priority="-1">
        <lane id="gneE9_0" index="0" speed="13.89" length="77.71" shape="101.72,-114.74 101.55,-37.03"/>
        <lane id="gneE9_1" index="1" speed="13.89" length="77.71" shape="98.52,-114.75 98.35,-37.04"/>
    </edge>

    <tlLogic id="gneJ1" type="static" programID="0" offset="0">
        <phase duration="42" state="GGGgrrrrGGGgrrrr"/>
        <phase duration="3"  state="yyyyrrrryyyyrrrr"/>
        <phase duration="42" state="rrrrGGGgrrrrGGGg"/>
        <phase duration="3"  state="rrrryyyyrrrryyyy"/>
    </tlLogic>
    <tlLogic id="gneJ11" type="static" programID="0" offset="0">
        <phase duration="42" state="GGgrrGGG"/>
        <phase duration="3"  state="yyyrryyy"/>
        <phase duration="42" state="rrrGGGrr"/>
        <phase duration="3"  state="rrryyyrr"/>
    </tlLogic>
    <tlLogic id="gneJ3" type="static" programID="0" offset="0">
        <phase duration="42" state="rrrrGGGgrrrrGGGg"/>
        <phase duration="3"  state="rrrryyyyrrrryyyy"/>
        <phase duration="42" state="GGGgrrrrGGGgrrrr"/>
        <phase duration="3"  state="yyyyrrrryyyyrrrr"/>
    </tlLogic>
    <tlLogic id="gneJ5" type="static" programID="0" offset="0">
        <phase duration="42" state="rrrrGGGgrrrrGGGg"/>
        <phase duration="3"  state="rrrryyyyrrrryyyy"/>
        <phase duration="42" state="GGGgrrrrGGGgrrrr"/>
        <phase duration="3"  state="yyyyrrrryyyyrrrr"/>
    </tlLogic>
    <tlLogic id="gneJ8" type="static" programID="0" offset="0">
        <phase duration="42" state="GGGgrrrrGGGgrrrr"/>
        <phase duration="3"  state="yyyyrrrryyyyrrrr"/>
        <phase duration="42" state="rrrrGGGgrrrrGGGg"/>
        <phase duration="3"  state="rrrryyyyrrrryyyy"/>
    </tlLogic>

    <junction id="gneJ0" type="dead_end" x="-28.46" y="53.90" incLanes="gneE1_0 gneE1_1" intLanes="" shape="-28.46,53.90 -28.46,60.30 -28.46,53.90"/>
    <junction id="gneJ1" type="traffic_light" x="96.75" y="53.90" incLanes="gneE7_0 gneE7_1 gneE5_0 gneE5_1 gneE3_0 gneE3_1 gneE0_0 gneE0_1" intLanes=":gneJ1_0_0 :gneJ1_1_0 :gneJ1_1_1 :gneJ1_16_0 :gneJ1_4_0 :gneJ1_5_0 :gneJ1_5_1 :gneJ1_17_0 :gneJ1_8_0 :gneJ1_9_0 :gneJ1_9_1 :gneJ1_18_0 :gneJ1_12_0 :gneJ1_13_0 :gneJ1_13_1 :gneJ1_19_0" shape="90.35,64.30 103.15,64.30 103.59,62.08 104.15,61.30 104.93,60.75 105.93,60.41 107.15,60.30 107.15,47.50 104.93,47.06 104.15,46.50 103.59,45.72 103.26,44.72 103.15,43.50 90.35,43.50 89.90,45.72 89.35,46.50 88.57,47.06 87.57,47.39 86.35,47.50 86.35,60.30 88.57,60.75 89.35,61.30 89.90,62.08 90.24,63.08">
        <request index="0"  response="0000000000000000" foes="0000000001100000" cont="0"/>
        <request index="1"  response="1000000010000000" foes="1111100011100000" cont="0"/>
        <request index="2"  response="1000000010000000" foes="1111100011100000" cont="0"/>
        <request index="3"  response="1000011010000000" foes="1110011011100000" cont="1"/>
        <request index="4"  response="0000011000000000" foes="0000011000000000" cont="0"/>
        <request index="5"  response="0000111000001111" foes="1000111000001111" cont="0"/>
        <request index="6"  response="0000111000001111" foes="1000111000001111" cont="0"/>
        <request index="7"  response="0110111000001110" foes="0110111000001110" cont="1"/>
        <request index="8"  response="0000000000000000" foes="0110000000000000" cont="0"/>
        <request index="9"  response="1000000010000000" foes="1110000011111000" cont="0"/>
        <request index="10" response="1000000010000000" foes="1110000011111000" cont="0"/>
        <request index="11" response="1000000010000110" foes="1110000011100110" cont="1"/>
        <request index="12" response="0000000000000110" foes="0000000000000110" cont="0"/>
        <request index="13" response="0000111100001110" foes="0000111110001110" cont="0"/>
        <request index="14" response="0000111100001110" foes="0000111110001110" cont="0"/>