<?xml version="1.0" encoding="UTF-8"?>

<!-- generated on 01/28/21 19:47:30 by Eclipse SUMO netedit Version 1.8.0
<configuration xmlns:xsi="http://www.w3.org/2001/XMLSchema-instance" xsi:noNamespaceSchemaLocation="http://sumo.dlr.de/xsd/netconvertConfiguration.xsd">

    <output>
        <output-file value="C:\Users\IT%20Doctor\test_sumo\data3\four.net.xml"/>
    </output>

    <processing>
        <offset.disable-normalization value="true"/>
    </processing>

    <junctions>
        <no-turnarounds value="true"/>
    </junctions>

    <report>
        <aggregate-warnings value="5"/>
    </report>

</configuration>
-->

<net version="1.6" junctionCornerDetail="5" limitTurnSpeed="5.50" xmlns:xsi="http://www.w3.org/2001/XMLSchema-instance" xsi:noNamespaceSchemaLocation="http://sumo.dlr.de/xsd/net_file.xsd">

    <location netOffset="0.00,0.00" convBoundary="-32.24,-53.91,576.69,294.49" origBoundary="10000000000.00,10000000000.00,-10000000000.00,-10000000000.00" projParameter="!"/>

    <edge id=":gneJ1_0" function="internal">
        <lane id=":gneJ1_0_0" index="0" speed="13.89" length="14.44" shape="147.62,71.97 147.50,57.55"/>
        <lane id=":gneJ1_0_1" index="1" speed="13.89" length="14.44" shape="150.82,71.98 150.70,57.51"/>
    </edge>
    <edge id=":gneJ1_2" function="internal">
        <lane id=":gneJ1_2_0" index="0" speed="6.51" length="9.04" shape="150.82,71.98 151.17,69.52 152.22,67.77 153.97,66.72 156.42,66.37"/>
    </edge>
    <edge id=":gneJ1_3" function="internal">
        <lane id=":gneJ1_3_0" index="0" speed="6.48" length="9.03" shape="141.94,63.17 144.40,62.82 146.14,61.77 147.17,60.01 147.50,57.55"/>
    </edge>
    <edge id=":gneJ1_4" function="internal">
        <lane id=":gneJ1_4_0" index="0" speed="13.89" length="14.48" shape="141.94,63.17 156.42,63.17"/>
        <lane id=":gneJ1_4_1" index="1" speed="13.89" length="14.48" shape="141.94,66.37 156.42,66.37"/>
    </edge>
    <edge id=":gneJ3_0" function="internal">
        <lane id=":gneJ3_0_0" index="0" speed="6.51" length="9.03" shape="141.94,143.58 144.39,143.23 146.14,142.18 147.19,140.43 147.54,137.98"/>
    </edge>
    <edge id=":gneJ3_1" function="internal">
        <lane id=":gneJ3_1_0" index="0" speed="7.33" length="11.72" shape="141.94,143.58 145.79,143.23 148.54,142.18 150.19,140.43 150.74,137.98"/>
    </edge>
    <edge id=":gneJ3_2" function="internal">
        <lane id=":gneJ3_2_0" index="0" speed="13.89" length="20.78" shape="141.94,143.58 162.73,143.58"/>
        <lane id=":gneJ3_2_1" index="1" speed="13.89" length="20.78" shape="141.94,146.78 162.73,146.78"/>
    </edge>
    <edge id=":gneJ3_4" function="internal">
        <lane id=":gneJ3_4_0" index="0" speed="8.80" length="17.49" shape="141.94,146.78 148.59,147.13 153.33,148.19 156.17,149.95 157.09,152.42"/>
    </edge>
    <edge id=":gneJ3_5" function="internal">
        <lane id=":gneJ3_5_0" index="0" speed="8.07" length="14.55" shape="141.94,146.78 147.19,147.13 150.93,148.18 153.17,149.93 153.89,152.39"/>
    </edge>
    <edge id=":gneJ4_0" function="internal">
        <lane id=":gneJ4_0_0" index="0" speed="13.89" length="15.05" shape="358.50,73.00 357.70,68.52 357.46,65.41 357.52,62.27 357.60,57.70"/>
        <lane id=":gneJ4_0_1" index="1" speed="13.89" length="15.05" shape="361.64,72.35 360.87,68.06 360.65,65.09 360.71,62.08 360.80,57.71"/>
    </edge>
    <edge id=":gneJ4_2" function="internal">
        <lane id=":gneJ4_2_0" index="0" speed="6.10" length="9.06" shape="361.64,72.35 361.47,69.79 362.21,67.97 363.85,66.87 366.39,66.51"/>
    </edge>
    <edge id=":gneJ4_3" function="internal">
        <lane id=":gneJ4_3_0" index="0" speed="6.55" length="9.15" shape="351.85,63.30 354.36,62.95 356.16,61.90 357.24,60.15 357.60,57.70"/>
    </edge>
    <edge id=":gneJ4_4" function="internal">
        <lane id=":gneJ4_4_0" index="0" speed="13.89" length="14.54" shape="351.85,63.30 366.39,63.31"/>
        <lane id=":gneJ4_4_1" index="1" speed="13.89" length="14.54" shape="351.85,66.50 366.39,66.51"/>
    </edge>
    <edge id=":gneJ5_0" function="internal">
        <lane id=":gneJ5_0_0" index="0" speed="6.11" length="9.06" shape="367.33,143.58 369.86,143.21 371.50,142.12 372.23,140.29 372.07,137.73"/>
    </edge>
    <edge id=":gneJ5_1" function="internal">
        <lane id=":gneJ5_1_0" index="0" speed="6.96" length="12.14" shape="367.33,143.58 371.28,143.17 373.91,141.95 375.22,139.92 375.20,137.08"/>
    </edge>
    <edge id=":gneJ5_2" function="internal">
        <lane id=":gneJ5_2_0" index="0" speed="13.89" length="22.29" shape="367.33,143.58 389.62,143.60"/>
        <lane id=":gneJ5_2_1" index="1" speed="13.89" length="22.29" shape="367.33,146.78 389.61,146.80"/>
    </edge>
    <edge id=":gneJ5_4" function="internal">
        <lane id=":gneJ5_4_0" index="0" speed="9.14" length="18.87" shape="367.33,146.78 374.62,147.13 379.83,148.18 382.96,149.93 384.00,152.39"/>
    </edge>
    <edge id=":gneJ5_5" function="internal">
        <lane id=":gneJ5_5_0" index="0" speed="8.43" length="15.91" shape="367.33,146.78 373.22,147.13 377.43,148.18 379.96,149.93 380.80,152.38"/>
    </edge>

    <edge id="gneE0" from="gneJ0" to="gneJ1" priority="-1">
        <lane id="gneE0_0" index="0" speed="13.89" length="172.58" shape="-30.63,63.17 141.94,63.17"/>
        <lane id="gneE0_1" index="1" speed="13.89" length="172.58" shape="-30.63,66.37 141.94,66.37"/>
    </edge>
    <edge id="gneE1" from="gneJ2" to="gneJ3" priority="-1">
        <lane id="gneE1_0" index="0" speed="13.89" length="174.19" shape="-32.24,143.58 141.94,143.58"/>
        <lane id="gneE1_1" index="1" speed="13.89" length="174.19" shape="-32.24,146.78 141.94,146.78"/>
    </edge>
    <edge id="gneE10" from="gneJ5" to="gneJ10" priority="-1">
        <lane id="gneE10_0" index="0" speed="13.89" length="187.09" shape="389.62,143.60 576.70,143.98"/>
        <lane id="gneE10_1" index="1" speed="13.89" length="187.09" shape="389.61,146.80 576.69,147.18"/>
    </edge>
    <edge id="gneE11" from="gneJ5" to="gneJ11" priority="-1">
        <lane id="gneE11_0" index="0" speed="13.89" length="138.85" shape="384.00,152.39 383.69,291.24"/>
        <lane id="gneE11_1" index="1" speed="13.89" length="138.85" shape="380.80,152.38 380.49,291.24"/>
    </edge>
    <edge id="gneE2" from="gneJ1" to="gneJ4" priority="-1">
        <lane id="gneE2_0" index="0" speed="13.89" length="195.43" shape="156.42,63.17 351.85,63.30"/>
        <lane id="gneE2_1" index="1" speed="13.89" length="195.43" shape="156.42,66.37 351.85,66.50"/>
    </edge>
    <edge id="gneE3" from="gneJ3" to="gneJ5" priority="-1">
        <lane id="gneE3_0" index="0" speed="13.89" length="204.60" shape="162.73,143.58 367.33,143.58"/>
        <lane id="gneE3_1" index="1" speed="13.89" length="204.60" shape="162.73,146.78 367.33,146.78"/>
    </edge>
    <edge id="gneE4" from="gneJ3" to="gneJ1" priority="-1">
        <lane id="gneE4_0" index="0" speed="13.89" length="66.00" shape="147.54,137.98 147.62,71.97"/>
        <lane id="gneE4_1" index="1" speed="13.89" length="66.00" shape="150.74,137.98 150.82,71.98"/>
    </edge>
    <edge id="gneE5" from="gneJ1" to="gneJ6" priority="-1">
        <lane id="gneE5_0" index="0" speed="13.89" length="111.41" shape="147.50,57.55 146.16,-53.85"/>
        <lane id="gneE5_1" index="1" speed="13.89" length="111.41" shape="150.70,57.51 149.36,-53.89"/>
    </edge>
    <edge id="gneE6" from="gneJ3" to="gneJ7" priority="-1">
        <lane id="gneE6_0" index="0" speed="13.89" length="142.12" shape="157.09,152.42 155.76,294.53"/>
        <lane id="gneE6_1" index="1" speed="13.89" length="142.12" shape="153.89,152.39 152.56,294.50"/>
    </edge>
    <edge id="gneE7" from="gneJ5" to="gneJ4" priority="-1">
        <lane id="gneE7_0" index="0" speed="13.89" length="66.14" shape="372.07,137.73 358.50,73.00"/>
        <lane id="gneE7_1" index="1" speed="13.89" length="66.14" shape="375.20,137.08 361.64,72.35"/>
    </edge>
    <edge id="gneE8" from="gneJ4" to="gneJ8" priority="-1">
        <lane id="gneE8_0" index="0" speed="13.89" length="111.62" shape="357.60,57.70 357.81,-53.92"/>
        <lane id="gneE8_1" index="1" speed="13.89" length="111.62" shape="360.80,57.71 361.01,-53.91"/>
    </edge>
    <edge id="gneE9" from="gneJ4" to="gneJ9" priority="-1">
        <lane id="gneE9_0" index="0" speed="13.89" length="173.67" shape="366.39,63.31 540.06,63.39"/>
        <lane id="gneE9_1" index="1" speed="13.89" length="173.67" shape="366.39,66.51 540.06,66.59"/>
    </edge>

    <tlLogic id="gneJ1" type="static" programID="0" offset="0">
        <phase duration="42" state="GGGrrr"/>
        <phase duration="3"  state="yyyrrr"/>
        <phase duration="42" state="rrrGGG"/>
        <phase duration="3"  state="rrryyy"/>
    </tlLogic>
    <tlLogic id="gneJ3" type="static" programID="0" offset="0">
        <phase duration="82" state="GGGGGG"/>
        <phase duration="3"  state="yyyyyy"/>
        <phase duration="5"  state="rrrrrr"/>
    </tlLogic>
    <tlLogic id="gneJ4" type="static" programID="0" offset="0">
        <phase duration="42" state="GGGrrr"/>
        <phase duration="3"  state="yyyrrr"/>
        <phase duration="42" state="rrrGGG"/>
        <phase duration="3"  state="rrryyy"/>
    </tlLogic>
    <tlLogic id="gneJ5" type="static" programID="0" offset="0">
        <phase duration="82" state="GGGGGG"/>
        <phase duration="3"  state="yyyyyy"/>
        <phase duration="5"  state="rrrrrr"/>
    </tlLogic>

    <junction id="gneJ0" type="dead_end" x="-30.63" y="67.97" incLanes="" intLanes="" shape="-30.63,67.97 -30.63,61.57"/>
    <junction id="gneJ1" type="traffic_light" x="152.42" y="67.97" incLanes="gneE4_0 gneE4_1 gneE0_0 gneE0_1" intLanes=":gneJ1_0_0 :gneJ1_0_1 :gneJ1_2_0 :gneJ1_3_0 :gneJ1_4_0 :gneJ1_4_1" shape="146.02,71.97 152.42,71.98 152.86,69.75 153.42,68.97 154.20,68.42 155.20,68.08 156.42,67.97 156.43,61.57 154.15,61.12 153.35,60.55 152.78,59.76 152.42,58.74 152.30,57.49 145.90,57.57 145.48,59.79 144.93,60.57 144.16,61.13 143.16,61.46 141.94,61.57 141.94,67.97 144.21,68.41 145.00,68.97 145.57,69.75 145.90,70.75">
        <request index="0" response="111000" foes="111000" cont="0"/>
        <request index="1" response="111000" foes="111000" cont="0"/>
        <request index="2" response="110000" foes="110000" cont="0"/>
        <request index="3" response="000000" foes="000011" cont="0"/>
        <request index="4" response="000000" foes="000111" cont="0"/>
        <request index="5" response="000000" foes="000111" cont="0"/>
    </junction>
    <junction id="gneJ10" type="dead_end" x="576.69" y="148.78" incLanes="gneE10_0 gneE10_1" intLanes="" shape="576.70,142.38 576.69,148.78"/>
    <junction id="gneJ11" type="dead_end" x="378.89" y="291.23" incLanes="gneE11_0 gneE11_1" intLanes="" shape="385.29,291.25 378.89,291.23"/>
    <junction id="gneJ2" type="dead_end" x="-32.24" y="148.38" incLanes="" intLanes="" shape="-32.24,148.38 -32.24,141.98"/>
    <junction id="gneJ3" type="traffic_light" x="152.33" y="148.38" incLanes="gneE1_0 gneE1_1" intLanes=":gneJ3_0_0 :gneJ3_1_0 :gneJ3_2_0 :gneJ3_2_1 :gneJ3_4_0 :gneJ3_5_0" shape="162.73,148.38 162.73,141.98 159.55,141.87 156.96,141.53 154.94,140.98 153.49,140.20 152.63,139.20 152.34,137.98 145.94,137.98 145.50,140.20 144.94,140.98 144.16,141.53 143.16,141.87 141.94,141.98 141.94,148.38 145.12,148.49 147.71,148.82 149.72,149.38 151.16,150.15 152.02,151.15 152.29,152.37 158.69,152.43 159.16,150.18 159.72,149.39 160.50,148.83 161.51,148.49">
        <request index="0" response="000000" foes="000000" cont="0"/>
        <request index="1" response="000000" foes="000000" cont="0"/>
        <request index="2" response="000000" foes="000000" cont="0"/>
        <request index="3" response="000000" foes="000000" cont="0"/>
        <request index="4" response="000000" foes="000000" cont="0"/>
        <request index="5" response="000000" foes="000000" cont="0"/>
    </junction>
    <junction id="gneJ4" type="traffic_light" x="362.38" y="68.11" incLanes="gneE7_0 gneE7_1 gneE2_0 gneE2_1" intLanes=":gneJ4_0_0 :gneJ4_0_1 :gneJ4_2_0 :gneJ4_3_0 :gneJ4_4_0 :gneJ4_4_1" shape="356.94,73.33 363.20,72.02 363.19,69.84 363.59,69.08 364.25,68.54 365.19,68.22 366.39,68.11 366.39,61.71 364.17,61.26 363.39,60.71 362.84,59.93 362.51,58.93 362.40,57.71 356.00,57.70 355.54,59.92 354.96,60.70 354.15,61.26 353.12,61.59 351.85,61.70 351.85,68.10 354.19,68.68 355.12,69.41 355.89,70.43 356.49,71.73">
        <request index="0" response="111000" foes="111000" cont="0"/>
        <request index="1" response="111000" foes="111000" cont="0"/>
        <request index="2" response="110000" foes="110000" cont="0"/>
        <request index="3" response="000000" foes="000011" cont="0"/>
        <request index="4" response="000000" foes="000111" cont="0"/>
        <request index="5" response="000000" foes="000111" cont="0"/>
    </junction>
    <junction id="gneJ5" type="traffic_light" x="379.21" y="148.38" incLanes="gneE3_0 gneE3_1" intLanes=":gneJ5_0_0 :gneJ5_1_0 :gneJ5_2_0 :gneJ5_2_1 :gneJ5_4_0 :gneJ5_5_0" shape="389.61,148.40 389.62,142.00 386.00,141.85 382.97,141.41 380.53,140.67 378.68,139.66 377.43,138.35 376.77,136.75 370.50,138.06 370.52,140.24 370.12,141.00 369.46,141.54 368.52,141.87 367.33,141.98 367.33,148.38 370.95,148.49 373.92,148.82 376.23,149.38 377.88,150.16 378.87,151.16 379.20,152.38 385.60,152.39 386.05,150.17 386.60,149.39 387.38,148.84 388.38,148.51">
        <request index="0" response="000000" foes="000000" cont="0"/>
        <request index="1" response="000000" foes="000000" cont="0"/>
        <request index="2" response="000000" foes="000000" cont="0"/>
        <request index="3" response="000000" foes="000000" cont="0"/>
        <request index="4" response="000000" foes="000000" cont="0"/>
        <request index="5" response="000000" foes="000000" cont="0"/>
    </junction>
    <junction id="gneJ6" type="dead_end" x="150.96" y="-53.91" incLanes="gneE5_0 gneE5_1" intLanes="" shape="144.56,-53.83 150.96,-53.91"/>
    <junction id="gneJ7" type="dead_end" x="150.96" y="294.49" incLanes="gneE6_0 gneE6_1" intLanes="" shape="157.36,294.55 150.96,294.49"/>
    <junction id="gneJ8" type="dead_end" x="362.61" y="-53.91" incLanes="gneE8_0 gneE8_1" intLanes="" shape="356.21,-53.92 362.61,-53.91"/>
    <junction id="gneJ9" type="dead_end" x="540.06" y="68.19" incLanes="gneE9_0 gneE9_1" intLanes="" shape="540.06,61.79 540.06,68.19"/>

    <connection from="gneE0" to="gneE5" fromLane="0" toLane="0" via=":gneJ1_3_0" tl="gneJ1" linkIndex="3" dir="r" state="O"/>
    <connection from="gneE0" to="gneE2" fromLane="0" toLane="0" via=":gneJ1_4_0" tl="gneJ1" linkIndex="4" dir="s" state="O"/>
    <connection from="gneE0" to="gneE2" fromLane="1" toLane="1" via=":gneJ1_4_1" tl="gneJ1" linkIndex="5" dir="s" state="O"/>
    <connection from="gneE1" to="gneE4" fromLane="0" toLane="0" via=":gneJ3_0_0" tl="gneJ3" linkIndex="0" dir="r" state="O"/>
    <connection from="gneE1" to="gneE4" fromLane="0" toLane="1" via=":gneJ3_1_0" tl="gneJ3" linkIndex="1" dir="r" state="O"/>
    <connection from="gneE1" to="gneE3" fromLane="0" toLane="0" via=":gneJ3_2_0" tl="gneJ3" linkIndex="2" dir="s" state="O"/>
    <connection from="gneE1" to="gneE3" fromLane="1" toLane="1" via=":gneJ3_2_1" tl="gneJ3" linkIndex="3" dir="s" state="O"/>
    <connection from="gneE1" to="gneE6" fromLane="1" toLane="0" via=":gneJ3_4_0" tl="gneJ3" linkIndex="4" dir="l" state="O"/>
    <connection from="gneE1" to="gneE6" fromLane="1" toLane="1" via=":gneJ3_5_0" tl="gneJ3" linkIndex="5" dir="l" state="O"/>
    <connection from="gneE2" to="gneE8" fromLane="0" toLane="0" via=":gneJ4_3_0" tl="gneJ4" linkIndex="3" dir="r" state="O"/>
    <connection from="gneE2" to="gneE9" fromLane="0" toLane="0" via=":gneJ4_4_0" tl="gneJ4" linkIndex="4" dir="s" state="O"/>
    <connection from="gneE2" to="gneE9" fromLane="1" toLane="1" via=":gneJ4_4_1" tl="gneJ4" linkIndex="5" dir="s" state="O"/>
    <connection from="gneE3" to="gneE7" fromLane="0" toLane="0" via=":gneJ5_0_0" tl="gneJ5" linkIndex="0" dir="r" state="O"/>
    <connection from="gneE3" to="gneE7" fromLane="0" toLane="1" via=":gneJ5_1_0" tl="gneJ5" linkIndex="1" dir="r" state="O"/>
    <connection from="gneE3" to="gneE10" fromLane="0" toLane="0" via=":gneJ5_2_0" tl="gneJ5" linkIndex="2" dir="s" state="O"/>
    <connection from="gneE3" to="gneE10" fromLane="1" toLane="1" via=":gneJ5_2_1" tl="gneJ5" linkIndex="3" dir="s" state="O"/>
    <connection from="gneE3" to="gneE11" fromLane="1" toLane="0" via=":gneJ5_4_0" tl="gneJ5" linkIndex="4" dir="l" state="O"/>
    <connection from="gneE3" to="gneE11" fromLane="1" toLane="1" via=":gneJ5_5_0" tl="gneJ5" linkIndex="5" dir="l" state="O"/>
    <connection from="gneE4" to="gneE5" fromLane="0" toLane="0" via=":gneJ1_0_0" tl="gneJ1" linkIndex="0" dir="s" state="o"/>
    <connection from="gneE4" to="gneE5" fromLane="1" toLane="1" via=":gneJ1_0_1" tl="gneJ1" linkIndex="1" dir="s" state="o"/>
    <connection from="gneE4" to="gneE2" fromLane="1" toLane="1" via=":gneJ1_2_0" tl="gneJ1" linkIndex="2" dir="l" state="o"/>
    <connection from="gneE7" to="gneE8" fromLane="0" toLane="0" via=":gneJ4_0_0" tl="gneJ4" linkIndex="0" dir="s" state="o"/>
    <connection from="gneE7" to="gneE8" fromLane="1" toLane="1" via=":gneJ4_0_1" tl="gneJ4" linkIndex="1" dir="s" state="o"/>
    <connection from="gneE7" to="gneE9" fromLane="1" toLane="1" via=":gneJ4_2_0" tl="gneJ4" linkIndex="2" dir="l" state="o"/>

    <connection from=":gneJ1_0" to="gneE5" fromLane="0" toLane="0" dir="s" state="M"/>
    <connection from=":gneJ1_0" to="gneE5" fromLane="1" toLane="1" dir="s" state="M"/>
    <connection from=":gneJ1_2" to="gneE2" fromLane="0" toLane="1" dir="l" state="M"/>
    <connection from=":gneJ1_3" to="gneE5" fromLane="0" toLane="0" dir="r" state="M"/>
    <connection from=":gneJ1_4" to="gneE2" fromLane="0" toLane="0" dir="s" state="M"/>
    <connection from=":gneJ1_4" to="gneE2" fromLane="1" toLane="1" dir="s" state="M"/>
    <connection from=":gneJ3_0" to="gneE4" fromLane="0" toLane="0" dir="r" state="M"/>
    <connection from=":gneJ3_1" to="gneE4" fromLane="0" toLane="1" dir="r" state="M"/>
    <connection from=":gneJ3_2" to="gneE3" fromLane="0" toLane="0" dir="s" state="M"/>
    <connection from=":gneJ3_2" to="gneE3" fromLane="1" toLane="1" dir="s" state="M"/>
    <connection from=":gneJ3_4" to="gneE6" fromLane="0" toLane="0" dir="l" state="M"/>
    <connection from=":gneJ3_5" to="gneE6" fromLane="0" toLane="1" dir="l" state="M"/>
    <connection from=":gneJ4_0" to="gneE8" fromLane="0" toLane="0" dir="s" state="M"/>
    <connection from=":gneJ4_0" to="gneE8" fromLane="1" toLane="1" dir="s" state="M"/>
    <connection from=":gneJ4_2" to="gneE9" fromLane="0" toLane="1" dir="l" state="M"/>
    <connection from=":gneJ4_3" to="gneE8" fromLane="0" toLane="0" dir="r" state="M"/>
    <connection from=":gneJ4_4" to="gneE9" fromLane="0" toLane="0" dir="s" state="M"/>
    <connection from=":gneJ4_4" to="gneE9" fromLane="1" toLane="1" dir="s" state="M"/>
    <connection from=":gneJ5_0" to="gneE7" fromLane="0" toLane="0" dir="r" state="M"/>
    <connection from=":gneJ5_1" to="gneE7" fromLane="0" toLane="1" dir="r" state="M"/>
    <connection from=":gneJ5_2" to="gneE10" fromLane="0" toLane="0" dir="s" state="M"/>
    <connection from=":gneJ5_2" to="gneE10" fromLane="1" toLane="1" dir="s" state="M"/>
    <connection from=":gneJ5_4" to="gneE11" fromLane="0" toLane="0" dir="l" state="M"/>
    <connection from=":gneJ5_5" to="gneE11" fromLane="0" toLane="1" dir="l" state="M"/>

</net>
